Circuit: * C:\2_WorkDir\LT_SPICE\GitRepository\LTspice\Self_built\LTspice\Wurth_Elektronik_Power_Magnetics_rev19b\lib\sym\Wurth_Elektronik\Power_Magnetics\WE-FB\Draft1.asc


Date: Fri Jul 12 14:18:17 2019
Total elapsed time: 0.027 seconds.

tnom = 27
temp = 27
method = trap
totiter = 0
traniter = 0
tranpoints = 0
accept = 0
rejected = 0
matrix size = 3
fillins = 0
solver = Normal

