Circuit: * C:\2_WorkDir\LT_SPICE\GitRepository\LTspice\Self_built\LTspice\Wurth_Elektronik_Power_Magnetics_rev19b\lib\sym\Wurth_Elektronik\Power_Magnetics\WE-FB\Draft2.asc

.OP point found by inspection.
.step currentdc=0
.step currentdc=1
.step currentdc=2
.step currentdc=3
.step currentdc=4
.step currentdc=5
.step currentdc=6
.step currentdc=7
.step currentdc=8
.step currentdc=9
.step currentdc=10
.step currentdc=11
.step currentdc=12
.step currentdc=13
.step currentdc=14
.step currentdc=15
.step currentdc=16
.step currentdc=17
.step currentdc=18
.step currentdc=19
.step currentdc=20
.step currentdc=21
.step currentdc=22
.step currentdc=23
.step currentdc=24
.step currentdc=25
.step currentdc=26
.step currentdc=27
.step currentdc=28
.step currentdc=29
.step currentdc=30
.step currentdc=31
.step currentdc=32
.step currentdc=33
.step currentdc=34
.step currentdc=35
.step currentdc=36
.step currentdc=37
.step currentdc=38
.step currentdc=39
.step currentdc=40
.step currentdc=41
.step currentdc=42
.step currentdc=43
.step currentdc=44
.step currentdc=45
.step currentdc=46
.step currentdc=47
.step currentdc=48
.step currentdc=49
.step currentdc=50
.step currentdc=51
.step currentdc=52
.step currentdc=53
.step currentdc=54
.step currentdc=55
.step currentdc=56
.step currentdc=57
.step currentdc=58
.step currentdc=59
.step currentdc=60

Date: Wed Jul 10 17:22:40 2019
Total elapsed time: 0.500 seconds.

tnom = 27
temp = 27
method = trap
totiter = 3
traniter = 0
tranpoints = 0
accept = 0
rejected = 0
matrix size = 3
fillins = 0
solver = Normal
Matrix Compiler1:       4 opcodes
Matrix Compiler2: 155 bytes object code size
