* LTspice Encrypted File
* 
* This encrypted file has been supplied by a 3rd
* party vendor that does not wish to publicize
* the technology used to implement this library.
* 
* Permission is granted to use this file for
* simulations but not to reverse engineer its
* contents.
* 
* Begin:
 AD 71 0B 7B 15 4B 2C 41 47 FD AA E4 35 5B 9D A3
 1C 29 51 35 4F EE F8 31 AA 68 AC 95 F4 69 41 4B
 FF 44 9D BD 03 07 77 E8 42 50 B1 26 55 2D 62 F8
 34 BC 43 B0 99 09 FD 01 4F EC 1B 4E 1D AC 91 B4
 97 E6 01 35 03 FA F3 5E 59 46 90 28 54 F8 1A D2
 A8 2D 18 91 3B 3F C3 42 60 99 34 2C AC C6 C0 53
 EA 96 33 4E D6 31 18 21 3D B6 88 97 F9 EE FF 9A
 B2 8C 92 F6 D1 98 B9 A2 FD C8 45 DF E1 D2 A2 22
 69 DB F9 19 F7 C8 23 80 B7 AB 8E 81 2E C9 EC A2
 A9 3D 90 B7 3F 67 A0 BB 35 F4 D8 89 7B 5C 4A B3
 F0 66 30 70 6B AA F9 2E 3D BC 5B 58 9A AF DF A0
 20 90 41 6B 74 A1 34 18 D1 5B 80 B9 1E 9E 5F 7C
 2A 42 D7 AD AB 86 9D A9 7E E0 E5 A7 47 2C 60 28
 5B 12 53 78 FE 0D A5 A3 94 CC 0E 2E 91 95 3D A5
 13 6D 07 30 36 4D 38 18 BA 26 B4 8A 1A D2 41 4C
 87 D6 C4 AC C5 91 72 13 5A 96 AB 6E F3 D8 6E A9
 4D 70 99 45 7A 6B D6 4E 3C BD 52 A0 B4 94 FC EB
 BA EF 87 B4 03 16 92 ED C3 30 25 A0 9D 87 67 DE
 51 C2 07 76 34 B1 0A 2E 3D D5 1C DA 0A 47 7B A5
 B0 CD 3C 6F 3E 1A 58 CD B2 60 E2 9D 78 85 D0 DD
 E5 64 28 56 D2 39 71 75 50 94 FA FC CA BC CD A0
 8C 62 8F E4 DA DB E1 78 C8 6C E7 7B 6B D9 AD 84
 69 46 B0 90 6C 11 E4 DC 07 AB F4 7B 86 92 1B 76
 24 5C 19 73 CA 58 6C 50 43 A8 7C BB 76 DB 7A 10
 56 A8 28 6A 61 20 55 37 E8 5E 62 90 10 2B C8 FC
 D3 55 C0 C7 62 72 B2 9F A9 A6 84 7B 3F 7E 41 DD
 63 B3 86 3B 24 09 BA AF 80 C5 D1 FB 6D 08 DC FB
 52 8A 8B 77 AB 71 AC C2 69 F3 49 AC 4C DE F0 C7
 D3 00 DF 08 FA B8 46 37 DA EE 07 6D 75 E9 CF 11
 95 68 55 25 9D 3D 91 C9 9A 37 B4 7A 0E 20 93 D8
 19 A6 81 75 AC 9E BA 58 F7 5D A8 CB F7 DA A5 01
 23 B8 03 4A D9 57 0A 76 A4 F0 49 D7 6A E4 B9 0D
 D3 EF AA C0 C8 3B 6B 13 3F 4F E1 1E C9 C7 F3 C1
 C9 16 A2 EA 84 0B F2 00 54 2A 3D 8E 56 E9 DC 2B
 6E A2 1C 14 17 CE 88 BE D9 8F 22 31 B6 50 C1 FA
 19 C1 5C 5A 9F DC EF EA 18 C7 70 75 FE BB 24 A1
 1E E9 5A 34 BC 76 8E F2 88 1F 79 82 17 DC 47 2E
 9B 4B B5 8E F8 89 B3 33 33 17 07 6B 96 12 FA FA
 BE C5 5A 3A F1 65 1B 3C EF 64 6E EA E1 CE 5C F5
 6B 03 B0 46 5D 16 42 BC 0C CD 48 B0 E1 98 22 EF
 81 C1 09 91 55 AA A4 A1 75 D7 33 2D 49 41 41 B0
 7F DF 3F 72 7D D8 19 75 5D 94 DC 0A 74 D8 9C 06
 91 AC 26 89 A6 3F F8 36 84 AD B5 0D BF C7 B9 53
 76 93 CF 7C 8E A8 EA 82 A8 90 CF C9 82 84 BA 53
 4E 00 33 91 51 3A 97 9D 86 86 E8 97 A7 2E C9 B5
 94 5B F1 05 D1 F1 42 4F 9C 4B A1 BB 83 35 37 9B
 1F 7C 45 CE 4C 4D F7 D3 0E F9 6F BA F3 9D 07 3A
 CF 8A 2F B1 58 EC AC CA FD BA D3 FE F1 DB 18 37
 EC 68 88 86 64 E1 BD E8 EF 44 74 B7 89 83 D5 4D
 58 18 B4 73 C1 A8 1E F6 F8 F1 FE DA CA 41 25 70
 4B F3 AA 48 CB 5C 02 41 74 C9 97 EB 43 8A 21 EE
 6E 10 B1 B7 34 DF 4F 76 1B 0B C8 B4 11 AA 18 F5
 86 41 22 EE 1C 38 A7 58 A3 10 35 33 4A D5 F0 72
 F4 C2 11 ED 19 16 26 09 15 5C E4 4E 21 DE 62 74
 3B AA B8 BC EC A4 A6 B6 BC B2 3E 4D FA 1B 4D DE
 7C C9 F9 36 5B 7C 1D 34 D4 06 EF 98 E7 E6 AD D8
 A3 A8 00 7F 2D 14 BB 64 D3 25 FA 43 0B 9A DC 38
 E7 E6 66 E5 52 26 FF E2 45 E3 85 7F 7C B4 69 C5
 BF 9D 9B 38 E2 DC CE F9 12 5A FD 66 52 48 A5 3E
 7C 12 47 FA 5A 98 27 D1 82 02 AA 25 6B 13 CB 57
 23 48 11 9B 73 EB DA 7F 1B 43 AB DB 9E 85 40 7B
 84 5D 9E 2B EF 87 0E A7 E4 0F BE 64 F4 93 75 A0
 10 1B C3 07 AB 00 51 A2 B7 D3 4E 19 68 47 F8 0C
 0A 99 E0 CF E8 65 7F A2 6E DC BD AF 9F CA CB 13
 6B BA 8B DE 3E 57 40 53 A4 2D 42 4A 20 3F 77 6E
 EF CD 9C 53 7A 1E DA C4 52 2B 9B 2B A8 9D 18 40
 29 1C D2 C9 2D EC CF 7C FA 87 41 46 9E 24 FA 9F
 B3 C6 B3 A5 0D 93 A8 F3 25 07 25 B3 F6 AB 81 20
 40 89 5A 2D D4 54 0F EC EB CF D8 72 FD BB DD 55
 53 26 36 CD A6 90 DE D0 54 CD 87 C7 A6 C9 DF 0E
 A1 8D 70 48 61 7E C4 F4 20 5E 27 30 3D 86 34 F3
 84 E6 48 51 18 27 1C A9 A2 5F B8 68 76 3A 61 EE
 DD 32 01 22 F5 7B B4 A7 C0 B3 08 4F 2C CE 03 29
 7F FF 6B CA 71 FF 93 B8 C2 32 32 9B B2 32 3B 5D
 1C 7C 04 94 C4 47 BB A7 FC D8 B2 54 F0 7A BA E3
 73 20 05 6D 71 C3 79 B6 CF 6E A5 FF 9D 53 70 91
 C5 83 17 A9 E4 A0 FE 3C FE 64 29 C1 FF FA EC F0
 9C 00 2E 63 3D B2 61 C6 97 4D 7A 1B 2C A1 24 91
 4E 2E 43 45 05 24 A0 A2 6D FA DC A1 35 EB D9 E2
 94 E2 8B 7E 37 A5 78 60 0C 22 50 20 C4 F5 D5 D8
 3C C6 C4 4E 9E DD 7E E3 02 C6 D3 77 47 C1 68 F7
 48 8B 7F 44 C1 B3 65 12 74 3D A3 E9 F2 29 9F FA
 45 D3 4A 21 9C 79 6E A0 10 8F E4 E6 3E 99 37 CA
 9B B4 79 C5 94 D7 08 F5 18 8D 1D 39 54 FD 8F 5C
 B5 91 42 CB 4A 1C 6F 85 DD BD A4 2A 09 3E 70 B5
 FE B6 F8 AB FD 07 3B 92 C1 4C 9D CE E4 C0 1F 80
 DF A6 5E 42 DC 02 B5 3E D8 08 97 F1 F6 69 BC BF
 D7 7D CA CD 99 22 6A F4 C8 94 6B FF 05 00 9A C1
 9E C0 BA F3 E7 A5 FC 7E CC E7 FE C9 38 DE 36 95
 8F 5A 59 DF 10 F0 ED 5C DF 39 5D 33 C7 B8 B8 A5
 9B 61 8E 90 59 ED 8A 62 4D D7 42 64 86 77 8E 68
 68 C6 6B 56 7C 14 E6 83 F0 4D 7D 53 F3 BB 1E 4D
 AF F4 3E 8D E2 28 D3 B8 D4 47 44 7E 0B 08 4B 8F
 B7 69 1B 6F C6 1B CD 9C 83 D7 46 99 C1 8E 11 07
 D5 86 70 87 92 9B 88 CB 41 27 E2 68 71 D5 64 24
 97 22 A5 49 CA 5A 9D 88 9A 55 29 88 CD E7 5C 98
 DA F8 49 93 E2 DF AD 97 85 0E 73 77 71 F1 2B 23
 F6 B9 35 02 92 25 5C 13 EB AD 1A E4 6C A2 C4 2E
 6E 91 6E 1A EC C7 46 36 01 72 7B 03 0F F9 34 B2
 D9 FC E1 E1 D8 3A 17 13 E5 34 90 C3 6E 05 10 AA
 5C 0E 5E F9 28 36 98 2B 80 AB 0A 72 D3 8B 72 F3
 63 1C 47 D6 65 1C C9 11 C4 B6 F4 41 37 66 63 98
 C7 C9 08 6F D2 4F 39 A9 4C 97 36 B6 F1 E4 5D FB
 DC 47 1C 54 28 E3 33 03 69 EE 5E 6C 9B F4 43 9D
 9A B3 32 D0 66 C6 C1 D0 02 83 A8 53 33 EF 5A 7B
 8E F1 91 CD 01 C4 7B 93 5A C7 E1 5A C3 94 4E 06
 29 1A 94 DE 5E 0B CA B7 5D 4D 1B AF 17 FF 03 64
 AE 11 00 C6 02 85 54 50 08 5E 33 05 06 40 12 C3
 14 11 DE 77 24 D0 37 DD 17 9D C8 A2 3B 6C D7 59
 4F 46 9C 5A C3 43 40 E3 F7 BA 05 56 1C AE 17 CA
 6D C4 83 FA 4B 6F EC 0F 71 D0 F7 2C 7F 50 FD 02
 5D C8 7B 63 7F EE 36 D4 7C 3B 8C AF 13 89 7C 83
 D2 8D 8B 46 F9 E0 EC 91 F3 FD 29 60 3E 11 40 F5
 FA D2 61 E9 C1 83 B5 85 4A F2 71 5C 70 2F FA 14
 DF D3 43 9A 3E B2 33 9E 79 67 DE 33 03 8D 14 EE
 BE D7 3C 2C A2 79 59 2E 9A BE 1B 3C 99 C9 9B 46
 90 B7 2E C1 DB 5E 5D 67 6A D2 F4 0F 35 34 8F 62
 8E FC 6C AC 3D 8B 31 C0 6D FB 66 3F 79 FA 6B B8
 1C A6 58 30 F8 78 65 22 B3 D0 99 74 32 46 B9 B8
 15 56 65 8F A8 5C 30 86 92 9B 6E B4 9B 71 91 03
 D2 EA 09 06 F8 0D D7 D1 0C A7 C5 A5 A1 6B DC F1
 D5 7E 4F BE D1 98 31 69 03 4B 9C 76 21 38 FB 6B
 D4 B8 E7 B1 70 B0 FD 94 9E E2 C5 CB ED DD 75 62
 2C 36 25 F7 67 A7 9B 92 14 13 42 95 F5 E0 47 C0
 7A 60 3B 82 49 E3 96 66 8A D5 72 EA DD 23 17 53
 DC 52 E9 47 19 99 61 09 B0 75 18 6F F1 B8 EA 9F
 83 61 8F 4B AB 15 47 67 57 9B 88 6E 44 03 9E 54
 3B 2B 81 D3 9A 7C CE 0C 62 7D 83 61 91 F1 E8 6F
 27 69 E7 D2 CB 0B FD BA F5 96 81 D7 BE D6 20 4C
 EC A7 2A 7C 45 88 F8 27 A9 9F A6 C3 7A C0 1A B9
 73 0F 5B DF 32 AF 99 37 35 2D 89 E1 C8 C4 68 B3
 CC 3F FF 95 38 3D D9 7D 31 F9 BD 03 81 13 76 6D
 1E 6A 61 6E EB BB FB 8A 8F 06 57 FA FD 14 CF 8A
 E4 07 99 9F F8 93 97 73 ED CC B9 1E 89 8B 1B 5A
 AF 41 52 FB B1 5B 81 58 7C D0 0E 3D E1 D6 92 93
 C7 D0 56 6D 59 EC 1E 70 E2 71 4A EE 88 AA 9D 65
 C9 44 6C 44 D9 1A D2 DC 44 A0 28 A1 B1 74 2B A9
 6B 7E 3E 64 4D 6F AC FA E1 79 F8 36 57 C9 40 2E
 7A 81 CD 0C 83 A4 61 A8 F1 82 92 D5 D5 9D 10 8B
 80 BA 90 C8 45 23 2D 1B 1A 3A C9 29 18 BD 75 91
 02 C1 1E 18 4F 8C 5D 27 9F 9F 21 65 B6 3C EF 8E
 B0 44 92 F5 26 2F E1 A9 7C CA B3 D2 67 09 BC 11
 0C 35 EC 0E 44 41 C9 04 89 75 43 88 82 B0 3E EF
 B4 62 53 91 7A 70 B0 90 B3 CD 6F 7A FD E9 A9 69
 31 8D 1A C2 EC ED 50 3C A5 97 0C 94 5F AA B9 F2
 57 24 06 CE 27 35 3B B2 E5 A8 DE 43 AA BB 7A 12
 64 B0 B6 66 94 FC 1B 74 A7 6B DF 9F 32 12 B4 88
 71 22 47 35 28 AA 2C 4C C1 93 CC 35 77 08 82 80
 5A 2B D5 18 1E CA 08 34 67 7C 91 0F 04 33 F5 71
 CD 45 19 D2 BD 0E EF 5B FE 14 8F E0 97 FC 3D 2B
 C1 DA 6B 73 9D E2 3E 39 93 9A 8C 66 B7 98 7E C9
 33 F4 C4 E2 49 23 FF 64 68 BD 8C 33 27 68 78 EC
 B1 6E 9D EE F3 D9 E7 DB 02 28 7E 00 64 34 C6 AD
 C1 25 64 A9 12 17 23 7C 9C 3E 9A 82 DD 35 CA 21
 BC AE 5F 33 88 69 F6 88 58 DD A9 9C 45 50 69 D9
 E4 52 92 EA 6D BF 46 1E 14 41 3D 41 08 2D 30 85
 AA A5 D2 29 E1 58 49 C5 7D 98 48 F3 C0 B4 6D F8
 F1 6A FC BF 4F D0 FE 18 8B 7F F3 99 FA 52 20 59
 70 13 B3 79 41 7E 2A 1D 6D 1E E2 8C EF 0F 7F 5C
 14 D5 99 12 54 A9 88 FE 08 2E DA EB 34 1C 1E BB
 20 78 43 FD AF 7E 7C B4 3F 70 45 AE A8 2A D7 8C
 93 40 50 BF 40 F5 17 AD 4D 23 32 40 BA B8 2F B3
 76 29 05 81 60 55 82 02 3D 6A 5B 57 F3 4E 24 DC
 2F D8 A4 09 ED D2 00 ED 5F 38 2F FD 5E 7C 80 CD
 5D FA D6 AB 47 1A 02 C9 DF 8D B7 88 EE E5 28 37
 E8 54 9F 97 8C 6D 8C 2E 0E FA 8F AB B5 AF 5B 71
 4B 8A 3B 00 55 FC 1A 8E 82 C8 1C 88 49 CF 29 70
 69 CC E5 A1 51 02 AE 6D 5F D1 25 43 30 53 E3 52
 55 F6 ED 20 55 85 6D 73 BD 46 08 00 4A 8A C5 77
 AD 49 77 45 37 5F 56 11 08 F5 C3 96 CA 1F 3C C6
 43 AA 6B 1D 68 05 F9 18 18 F8 DC 65 F6 3B 1C AE
 77 A4 47 1A CF 47 2C 16 1A AF F3 89 95 53 3A 43
 98 32 5A 6D 65 B6 58 A6 DA BC 78 C1 F4 0E 55 77
 4D 93 16 23 26 AB CA 05 9A 7F 1F 23 BF 80 B5 E9
 0F 02 0D 6D 1B F6 4D D6 4F A8 A9 75 C6 62 27 1A
 B4 40 FC 0F 1F DC 52 AA EC 91 29 CC F3 08 74 F2
 55 9E 27 8F 35 09 EB B9 5E 90 C8 B5 15 03 11 74
 3B F3 39 D0 6D 73 DB 55 92 30 9E F5 21 DF FE 60
 96 AC C0 20 2E 4C 94 88 8C E3 FB 1D 58 32 CB 17
 83 CB 05 A3 32 03 AF 84 80 DE 4B 8A E6 AB 7F A1
 FD 06 01 A4 F8 2A 03 A0 1C 34 4A 0A A0 EB 52 C2
 CA E1 F1 84 90 94 21 1B BF F6 5B 13 D8 3F D4 E4
 CF 93 5E 61 EB 53 82 57 92 30 ED 43 FB 8A 5F 81
 25 D1 88 F9 D3 62 9B 42 DF FA 5B 35 0C 30 0A 48
 00 13 0C C1 96 1E 32 86 39 33 BF 30 13 26 FA 8B
 F0 31 F7 69 85 E3 E0 7D 9C 15 B0 E2 53 4A DD 6B
 FC EF 69 6B 06 86 ED 40 F5 37 4E 27 8D B6 F4 AC
 A5 D1 D8 51 24 19 44 2E AF AA 92 9D 91 B9 5F EB
 36 50 5C FE EB 97 A6 E5 18 6B B6 AA 86 B5 C7 CD
 27 D7 AF 8F F2 52 40 25 94 5F B5 F7 C7 53 10 73
 0D 23 85 D4 65 1F 96 F8 60 D8 69 44 4C 76 76 48
 16 F6 E1 55 D6 1D C8 F1 31 78 70 E5 6F 81 3C 61
 36 43 9E E4 19 42 D7 EB 5D 6E 52 C7 31 32 58 BA
 B2 A8 EB 56 C5 E4 0F C9 F6 9A D1 77 B9 3A 27 70
 6E A6 41 97 88 A2 5B D9 DB 1D 4B 64 F3 53 9C F5
 89 1C 94 12 06 67 61 7B 6F AF 72 5E 7F 38 AC E7
 F4 B4 5D A0 57 F1 55 88 D6 71 50 35 2B 52 CC F8
 AA 87 57 7C B4 89 B0 F5 92 0D 14 FB EE 6A 78 3E
 CD 99 BC EA A1 61 39 F1 FD F2 C4 A1 C7 48 3D 0B
 6E F7 15 A2 39 17 59 47 E2 3B 09 C9 03 69 A5 AB
 9A 0D 22 F8 7A 52 89 23 2F CE E2 AF D8 57 2F 0D
 67 48 97 F5 71 B0 08 C2 E3 42 0D 8C 56 57 C3 3D
 8C CE FD F6 AB 4B FF D2 28 E8 CD 8E DB 6A FE 30
 17 C4 45 2E 38 2D AE B6 E4 06 30 59 A3 9F 9C CE
 29 E1 3B 4B E6 11 42 01 A4 C3 BE D6 B5 4C 92 8D
 6F 7B F9 AD E1 AF 38 7B 51 09 74 29 FE FF 99 6D
 0A 2A 93 D3 D8 4F 54 33 C7 EF 05 46 C2 83 C5 4B
 74 19 2E 8A E4 C4 13 8E 47 46 FD 16 9D DA A5 94
 AF DA E1 B5 A7 9E E3 72 91 BC 28 C8 AB 90 8E 08
 69 59 49 FF 96 C4 97 8F 74 4B CC CA 62 8E 62 4E
 31 AD 12 30 B9 98 07 16 59 17 3A 21 F7 49 0A 02
 62 0A 92 CF 74 70 D1 6B B3 94 7C 2B 7F 9A A1 C3
 9E F8 B3 3D 4B 63 B4 67 57 B0 B1 88 51 7B 80 77
 79 A1 9B 98 5D 44 90 EC B3 58 EC 7E 5B EE 19 31
 70 9B 3F 77 87 4D 7B AE AF 43 4C DF 45 BD ED 4D
 7D B3 19 78 7A 02 29 00 12 3D E8 82 D8 16 EC BB
 3B 4A 37 D7 23 82 52 39 AE 32 ED D8 24 BA B6 0E
 8D 9B 0B A3 F5 04 C2 86 0F C6 3E A8 61 3B 36 8C
 2A 81 71 52 8B 62 45 88 0F 47 D8 0A 2B EC 4C E3
 64 61 5A C9 33 AA F1 3B B0 17 4C 0D 31 41 CB AB
 F1 9E 0C E0 26 3D B1 38 0A F8 9D DC 5E 3F A5 6E
 F6 B1 A6 41 6E 3E 71 3C B8 B8 89 FB 2F 9D 7E B2
 C8 11 04 01 82 43 C1 5E 82 46 1D 27 AF 63 B3 5B
 16 65 EF 5B 14 02 55 BB 08 10 A2 F4 5F 24 87 44
 74 2E C6 16 CD 32 B0 95 EF B0 A4 12 88 29 D4 7F
 BC 9E FA 4F 27 F4 FE F0 BB 7B 79 C5 46 50 30 00
 F6 A2 54 65 E6 F8 9F 19 9C 4B 06 BB 99 80 80 41
 52 38 5C 7C 44 EC 82 FF 4F C1 67 F8 7F 55 5E 4D
 11 81 D1 DF 46 26 17 91 C6 21 C1 DA 5A 61 02 C0
 B8 61 0F DC 49 5D 5F 89 77 4B CC AD 09 8F 4D 51
 87 C9 95 93 CD 02 B1 FB 60 7B 2E 27 DB 04 B0 F1
 2E E6 22 4C 77 8A 75 35 5B ED 52 59 C9 A3 E1 EA
 C0 B9 8D 6E AE 29 A2 CD 6B A5 0B E6 64 3D 7F 30
 5C F8 04 9A C7 86 AC 85 90 07 1F 4F 80 7D E7 48
 9A 5F 22 69 B7 32 B4 20 12 B8 27 92 DE DB 92 3F
 6B B2 3F 6A 9E D7 28 A4 D1 F7 25 72 7F 90 23 53
 32 2B DF 38 10 6B 9E 07 02 1D 3A 03 84 09 6B 0F
 0E 6E 58 01 D6 11 08 70 65 DF E9 F1 9A F5 0A C6
 34 CB 5C C8 92 34 7C FF 2B 57 42 45 A4 BF 27 BC
 DE 78 E6 36 49 9C 05 69 36 31 32 32 B9 AB CE 12
 12 45 A1 B1 C3 AF 25 5D F7 44 B1 39 A4 28 75 C3
 00 6C FD 63 E8 23 72 DD AC 36 C1 45 AB B0 F5 F0
 EE 73 89 85 5F 64 EC 3E 3C 7F 61 42 BE 2D 6B 07
 B5 77 EE 9F B2 0B 7B 79 F7 CB 64 4D CB 7E 5E E0
 AC 29 D1 FD 94 08 A6 95 DE A1 7C D7 87 BB 9B E1
 4F BF 61 26 7F 7A 4D F4 99 A9 73 6F A6 ED 9E B2
 98 E5 77 5C FB 1D FF 46 EC 9E 85 B8 19 92 4F E8
 F9 85 7E FF 08 3E 79 60 7D FD 13 95 B6 8F 37 D7
 7A 63 7A 01 B3 2B 6B 37 22 25 55 1E F9 B0 AB 0C
 71 36 0E D1 09 8A 14 BE 20 22 6B F2 E6 8D 99 82
 77 2C 32 33 88 50 85 8F 72 D8 7B 76 47 A4 80 51
 84 2A 70 B5 81 DE C1 69 D3 A7 82 93 25 54 4A CC
 6E A6 F8 3E CF 43 5C 62 C3 9D D6 D4 14 4E 59 F1
 36 EF E8 FA 9F B4 4C 24 71 C8 A6 A8 14 38 41 B3
 E6 B5 97 28 76 27 26 F8 29 F3 77 49 53 26 F2 30
 62 17 7E 88 C2 45 D9 23 74 3D 0A A2 5D EA 84 31
 43 CD 74 7D 22 59 8A A0 3F E6 46 EC C8 62 C6 54
 21 E4 6B 1E 4D E1 92 93 86 BF 5B C8 2E 3B 32 77
 06 33 B0 02 0F 19 24 F0 E8 47 E4 E9 CB D8 B9 14
 BE 4F E3 E3 DB 95 52 0A EF 2C 71 43 C0 F0 47 66
 C8 EE A5 DD AE D7 27 AE A8 B3 09 04 FB 6D 15 79
 BC BD 15 A2 FE 8B 76 17 0C 75 CF 52 A5 98 2B 75
 F6 3E D4 06 A6 B7 96 D6 38 50 02 26 93 1F 00 9B
 96 4E 8E 61 74 BA 4E 51 4E 59 53 AA 2F 18 F6 0C
 A8 46 F1 F3 B2 46 DB F6 F9 A2 C3 2B 4A 91 FC 2F
 51 2A DC C3 EF AD 4C B5 1A E8 0B 6E D5 21 C8 8E
 DB BD 59 54 42 04 07 B5 EB 01 CE 8A F4 6D D3 25
 7B 3C 5F DF EF 3C FD 3F CB A3 2A 13 9E 07 A6 F4
 5E 8D 1C 29 36 9F 28 71 2B EA CE 0A 5D 7A 74 46
 4D 81 7B FB 53 48 B7 CC 82 FF 62 12 31 87 3B 53
 5A 67 73 78 18 A5 B8 7E AF 7A 8E DA CF 4D 69 98
 8D CA EE 9E 56 97 6E 95 6A BB EB D9 97 E0 0E 04
 9D 2A FF D9 EC 91 36 C0 8A 95 61 FF F8 97 3B 75
 01 FB 23 7E 52 C5 3A 22 40 71 6F 6F 44 9E 8A 49
 C7 26 C5 C8 A6 46 AC E9 DD 09 BE 7C 30 AC AF F5
 95 8B 8A 05 59 13 7D AA 94 30 0B 4E 07 EF CB 7B
 16 D0 67 54 11 5B E7 13 51 AC 04 40 22 0E C3 08
 D7 13 C7 4E AD 07 C4 8D 9C B5 AC 9F C5 A7 DE DF
 C4 6A 45 35 3F 89 70 D1 00 E1 55 F5 B1 B2 36 0C
 2B 7D F2 24 D3 A8 A1 1F 93 05 66 68 A9 92 4F 5E
 0E 37 D0 64 FB 9D A4 89 FC AB 0E 68 39 20 64 41
 92 0F DA A0 A0 5B 50 7D D0 8A 74 58 55 D9 FE 00
 5A 94 FE 58 64 4A CC 9C 72 E6 7F C6 40 EF B5 1F
 7B 16 AD 4B 54 01 A8 19 0F F8 48 16 5E D3 2E CC
 F1 10 8B 7A 62 03 D1 74 3F 44 B2 F3 40 03 09 56
 24 44 9D 5C 4D EA 63 4B B3 41 A1 F5 E9 8B DB 70
 D3 91 96 36 0C A7 00 A1 CF 27 13 FC 5D E1 9D 50
 2C EB 4B 02 30 5B 3C 1C 40 D7 92 C3 13 A5 B0 88
 DE 7E E8 DC 33 87 F0 82 59 E1 AF 20 0D 61 FA 64
 76 6C 23 4C DC 8B 36 AC 34 93 FA FC AA 54 EF 61
 CE 2D 2E DF 22 C7 9C 60 B0 8B 9F 7F C0 1D 84 67
 A6 CC F5 A2 DC 44 9B F5 1C 84 9B E6 72 B1 B4 50
 57 91 3D 18 DA D1 73 03 D9 B3 2E F4 1A 09 DD 66
 4B D9 BD 4F 80 EE 19 F8 A2 4B 87 FA FD 7F 11 53
 37 DC 58 23 08 68 5E 59 01 7D E7 43 87 72 BA 9F
 FB 27 0F 37 59 B1 4E 42 AE F9 11 03 5B 97 98 EC
 37 5F E9 5E 17 9A 64 CA C4 A5 BE A2 F5 4E D5 F3
 C4 54 69 7C 14 50 49 F3 D4 1C 9C F0 74 4E 06 29
 70 7F 48 09 C5 EB C4 62 93 19 11 15 E1 23 A0 D0
 EB 3F 9F 7F 75 26 97 0B 99 A2 34 15 BD 63 C9 D6
 93 D5 CA E2 3B 56 9D 7A 84 AC A6 94 0C 0E 11 BD
 59 4F 0D 46 37 E1 3F A6 17 34 CB 27 B0 93 A2 6A
 16 43 4B E1 AA AC 98 E0 20 48 B8 0E C3 BF 9B 80
 A9 4B A4 55 0E 7B 72 02 4B 04 FF BF 88 47 F5 B0
 38 4D D8 E0 8C F7 82 79 62 6D C9 E7 93 74 07 EC
 94 A2 AD 4A 3F BB 54 92 AF 3F C8 C7 6C 71 9E 09
 45 D7 37 CB C3 EC A2 95 0E F9 29 08 75 50 C7 E7
 B6 D7 EB F6 00 1A C5 CC A6 88 81 11 B6 6E 44 B6
 52 61 D3 3A 3E 07 23 EE E5 A6 B7 EB 04 01 23 94
 52 90 B7 AB 90 3A 01 B5 15 9C 37 D7 48 3A F9 40
 B5 36 C3 89 EA D7 03 50 B7 A4 A3 51 21 BF C1 72
 0F 9A EA 47 EA 66 E3 9A D6 3C 75 47 FA 33 BD 64
 8F 87 CC 35 80 56 D2 76 DB 47 AB B8 F1 9D 94 57
 AE D4 83 C3 31 69 AE 94 2E 8E 13 99 2A 60 4D 8F
 85 2C B9 D1 12 6A 52 4A 7E 92 A6 68 CC 5E 56 09
 BC 65 03 65 92 89 5A 20 F6 86 8A 92 4E EF 94 EB
 2F C9 5C 70 33 EC 49 10 32 9B FE B9 50 32 E1 47
 E2 A7 72 39 CD CD 64 CD 1B 4A D9 62 D3 91 67 B0
 CD 5B 10 2D 27 35 84 52 FE 78 CC 5C B4 14 01 66
 9B 4C B9 D3 D9 4C F5 DE 7B 55 67 11 B0 70 89 EC
 3A 82 40 2D 8E A4 45 06 F6 2D 43 20 29 79 B0 0F
 C5 A0 E1 B7 78 0F E9 2F B8 52 84 94 CD 44 E9 2A
 46 8F B9 80 B8 0F 55 3E 80 12 1F 8A 1C BB 23 03
 20 49 77 2F 7A 63 90 81 26 10 CF EB DA DA FA 98
 A9 B0 24 F9 B2 13 D3 4D 91 AE DE 0C 93 2C AD 5B
 30 6F 23 EA E1 69 A7 DA 36 F3 AA 84 1B D7 E6 CE
 55 27 31 C1 3D EF 75 75 78 92 B8 AF 20 A2 EA 5C
 64 65 B4 59 B3 A9 CA 76 3C 44 9C 5C 71 41 42 AC
 A4 6D 04 F0 6D 46 D2 D9 8E F6 06 4E ED 80 42 D7
 E4 B6 E9 C8 93 A9 5D F7 2F 96 9B B7 30 C1 EE C0
 70 62 69 D1 1A A3 74 1D 82 D2 F5 AA 12 09 48 B1
 12 8A 9F 0A 3C 00 94 08 F4 84 15 05 D3 9D 31 90
 D7 7F BE 02 91 7A E8 6E 68 88 A2 89 40 41 12 FF
 D9 A5 43 48 8A CA 5E 96 C0 7D 13 72 DC AC 4A 76
 B8 04 15 68 7B 8D B9 0C 71 1A DF 10 63 52 37 DC
 1F 87 29 E5 63 AF 09 4C B9 E8 DB FF 51 DA 3D 7F
 50 F1 76 7E 1C 0A 70 50 DA 37 8D B1 E9 CF E6 F9
 30 58 4D 5B E0 2D 51 B7 CC 92 4B AC F7 44 CD 83
 AD 1C 39 FB 35 2D B7 0D 52 91 C9 0F 95 86 DF E2
 A4 6C 7E 7E 39 3D DC ED 85 77 72 30 BE F1 EF 7C
 61 E4 4C D2 78 41 35 85 20 4E A6 ED 75 B1 FD 7A
 95 FA 71 DA CD E8 5A F7 38 2C A5 DC A5 D8 F7 1E
 21 33 7B 6F 49 66 DC C9 36 04 9A BD 0C EF 10 6A
 A7 C7 E6 7E 30 25 32 60 A4 56 BE 2A A8 2C 6C 11
 C8 3B 79 FC 1E AC 77 6B 81 44 DD 5D DE BB 16 68
 2E DC 45 97 B1 CC 94 80 BB D6 EA 2A 09 7F 2C 8B
 BA E5 67 F4 B9 7E 7E A6 AB 28 20 1D 62 88 78 58
 79 C4 61 C1 2D 1A D0 DC 55 98 7A 2D F9 17 51 2A
 DB 87 E6 DF 80 9E 0D BD 24 4D E5 6A 09 BA FA 4F
 4B 66 F4 06 7B 4C E8 E1 69 EE 7D 2B 14 53 A3 33
 23 A1 15 C1 BF 20 0A D6 B4 75 C5 92 15 D2 84 74
 B1 50 96 53 A6 01 D8 49 FE E5 55 5F 39 51 5B 42
 EF 2E 45 96 3B 2D 5E C4 94 98 1F 7F 93 7E 14 CF
 7E 87 FB EC 60 45 6F E1 98 14 4F 7E EA A1 61 98
 EC 07 CA C6 20 9E E4 0F 36 84 80 19 91 35 1C D7
 64 95 07 27 61 5B 79 EE 42 A9 7B 96 AD F7 90 FC
 88 0F E1 AB E0 19 F1 6F CC 04 00 94 B1 A9 6C B5
 DF 41 37 18 77 E3 56 2F 97 04 71 75 49 A2 65 1B
 79 3D A1 80 A8 03 75 A8 9D 37 20 94 DE 8C 52 3A
 08 50 67 39 E3 77 25 91 08 69 04 BF 64 6C 41 45
 94 49 9D EF 5D 50 DC 8E 76 A4 F8 91 DF CC 69 8E
 A6 0B 6C 68 34 33 BF DE ED 9F 14 A0 2C 2E 18 66
 44 15 92 70 B7 B2 A4 2E 0E 6D 52 CB AF 6F 64 8E
 69 7A B3 6F 45 84 65 FC CA A6 9B 76 6B 2C A5 BA
 A9 4B 9D 7D D6 7F D5 3B C6 12 D3 6D 67 AF BE 08
 D2 F5 9E 50 82 21 F7 C7 F7 37 86 2B B6 42 12 94
 34 72 11 E0 A4 EE 8A DF AF F5 45 B6 C7 42 CF E0
 E1 17 EE 15 38 CB D1 A3 0A B3 80 71 30 6F FB 31
 37 DA CB 8F EB 2D 2C 0C 56 7B 6C FF FE A6 24 DD
 9B 16 A7 DD 15 86 6D 52 D8 C0 77 CE 1B 31 EA 7D
 FE 2A 7D 63 2F 33 D5 C3 D3 A7 9D 58 F1 74 87 79
 3E 53 92 F3 BD 33 49 D6 FC 3A 68 44 E7 CA 80 5E
 97 BF 78 AC F3 16 1B D1 CC E0 E7 13 79 A9 A2 AC
 68 A8 D6 75 62 74 CA 1A 33 3C 64 0E A6 6E C7 4B
 30 C4 4A 6A 94 F7 F7 53 9D 41 6E 46 AA 57 02 33
 C1 73 5C 0C 67 15 56 E5 1B E9 F2 2E EB A7 7F 61
 A9 37 C1 2A BA 0D 44 F9 71 1F AF C4 5F 1E 82 6F
 CB 22 F5 1B 5A C8 E4 0C D8 39 28 CF F5 2C 6B 80
 84 A8 21 92 44 7D 93 80 44 E6 85 C1 57 82 CC D8
 C9 AF 0F A6 21 17 DF E2 C8 FE 9E 47 66 53 BD 9F
 10 08 DF CB C3 07 6C 89 D8 79 35 98 F9 59 01 84
 D7 4B 87 5B EA 07 64 4D 6E D2 19 F8 AA 98 9D 5F
 76 AB 25 41 DC 1A 48 76 8E 72 43 B5 6F C2 AB 3B
 BE E6 7B 74 66 1D BB 61 09 B5 05 AC 13 AD 7E 39
 D9 0B C7 F8 57 C2 DE 5D EA A4 5E 6F 09 47 C7 0B
 12 10 7F 0F 6B 51 82 AD 13 9A F6 6A 7D F6 9D 67
 59 8F 6F E6 21 B3 BF A4 68 09 AF 2C DA F3 96 E7
 BC 62 03 6D CA B3 A3 CF 7A 83 86 8B C8 67 11 06
 A8 E8 37 AB B8 EB F8 BD 8E B6 76 E0 BF 1D C2 D8
 88 9F EF DD 62 95 C5 AE 45 00 A6 11 01 75 FF 92
 26 BC 87 0D 88 1D 9E 84 8A 54 DA 74 F3 E5 15 87
 2C 09 46 5B BA DF 1B 16 9F E7 48 17 F0 7B 97 1F
 59 B8 8D 30 93 99 B2 1B 7C 35 D9 BC FF 0F 46 D9
 D4 E6 98 D5 AA 19 1F 3D 38 3D 65 B6 77 02 9D 09
 B7 83 A5 37 13 6C 48 EE 9E D6 EA 77 13 CF 23 26
 FF 73 68 D9 4E D7 AB 3D 80 8F 35 7D B9 19 45 90
 F5 DC 97 05 49 D6 26 BB 18 E5 8C ED 64 68 07 FD
 31 97 5B FB E3 D2 0B 8D B4 61 BF 21 4D 48 8C B8
 A0 46 15 EA 3B 44 0A 48 04 5E 44 74 51 8A BD 29
 4F 9B 1B 7B E8 7D 5D 22 1A 20 AB 51 8B 3D BB 13
 D2 58 75 BA DE F5 E2 D3 A2 68 9F 39 C7 F1 CD 7C
 52 9B 0A F0 6C 6F 81 DB F5 85 95 55 5C 0F AF 85
 F8 4B 9F A1 9B F8 26 88 73 9F 2D 56 C2 29 2B 6D
 AE C3 53 99 AD FF 03 CD AF 5F B6 C5 7E 06 B1 D3
 B7 0F 8A 72 4B D9 29 2C 99 AE 31 5B E4 6F 4D 70
 F1 4A 63 ED B2 5E F7 F3 95 51 0F C9 80 70 87 FB
 8C 7D 12 B7 98 E0 40 5F 1C 83 23 A0 B8 58 AC 5C
 0E 74 4C 41 D3 84 8B CB 0E C7 28 E3 60 60 50 7C
 6F 95 BC 5A 20 3D D0 50 DC A6 AA 34 C6 80 B9 03
 F6 23 EE 8D 60 47 27 90 DF D0 A7 38 6A D3 68 0F
 F8 8B C3 62 35 5C E0 13 D0 68 37 77 E4 0E 56 8E
 5F 98 F5 24 A9 EB 08 F2 77 18 CD CB C8 95 EB 38
 29 CF 9D 38 13 57 16 31 34 26 80 67 F4 F8 D5 66
 79 2F 8F 6B 0E 6A 04 8C D6 34 67 A1 34 0B 4D 53
 03 53 7C 47 B8 8E A1 B6 8B 17 52 DE 01 96 93 84
 D2 8D 30 2B E9 D2 62 97 EC F5 11 2D 5B D5 96 46
 14 18 CE 19 4D 8B 87 A5 3F FE E8 9C A5 40 2B 2B
 6A E6 99 85 ED 39 4B FD B8 54 1D 5D 7B 89 D9 A9
 28 E9 CF 87 38 EE 3B 68 F0 2A 09 F7 73 73 19 17
 00 7E FD 74 6E 1B 4D E2 41 B5 92 94 4D E7 B6 18
 D8 7F 93 27 27 0D 6E C3 BE 84 2F 6B 7E BC A5 6B
 B3 AB C4 47 0F 68 91 C5 31 7A F3 AE DD 98 83 EC
 6B 3A 8F A6 5E F7 3E 20 15 22 7A B6 D1 3C 17 E0
 3F 55 2B D1 FC AC DC 96 47 27 EA 75 F4 70 00 02
 75 B0 26 46 E2 9A 5B F4 D9 7F 37 06 B7 4A 5A 1A
 FD 3E 34 19 3A 84 D3 20 DC E9 83 D5 32 8E 12 5A
 B8 9C 58 1F 34 BD BE 85 7C D1 B4 63 8E DA 39 82
 25 4B 54 A1 C4 4B EA F7 5E B5 81 1B ED 9C 51 56
 45 79 38 0A 90 BF 3D C9 7B 6D 6B 3D 8F B1 78 3A
 C0 0C D3 F4 BB 7C AF C1 6F C3 04 25 16 B4 5C C0
 B0 FF 36 80 84 46 A7 B4 1E 06 39 CD 6C 07 A0 C2
 F7 8F 1B 14 0D 07 4B 52 A2 FB 85 E6 B7 F5 ED 11
 60 1A BD 75 3E 2A DB 8A 9A 22 49 75 BD 2B 3A 5A
 9A 1A 84 B5 02 35 8A 69 43 AE 2F D5 7A AD 84 6F
 69 3F BF 22 EB A0 C1 5A EB 7B 20 66 9C AD 87 8C
 6E EC C4 F0 80 84 9A D7 1A 2A A4 85 FF 3B 3E 71
 50 32 47 4B 21 B0 5E 39 B0 F6 AE 15 BB D7 07 45
 3F C9 61 82 91 4F 6F 7F 8C E5 B0 78 CA E7 AA 5B
 E7 8B 89 45 ED 3E 94 29 27 57 F6 4B 7F 68 FB 5F
 BC 3B B3 61 23 19 D7 96 47 CD 01 F2 83 28 68 67
 A2 0F E2 10 F7 30 27 A5 FC FB 81 F8 16 45 3B 95
 0E B9 E5 BD F6 F7 D1 FE CE A3 F2 38 C9 7F B2 5E
 06 D7 4A 3C CF C4 50 7B A8 81 41 BA 0B EE DB 03
 E3 93 DE 3C 49 A3 A9 14 E1 A9 79 CD 22 61 83 BF
 9B 1D 41 91 69 6D F7 42 BA F5 68 0D 59 03 39 2A
 17 E1 73 B4 3A 9B 2A 56 61 82 5B 60 FF AC 8C 7A
 A5 CB 72 C5 7D 40 53 0B 0F 18 1B 7D 00 E8 F3 4F
 1A 62 ED D8 C9 C4 09 2C 85 62 42 7E 41 8A 3F B3
 E0 62 C0 44 80 76 A6 CC 4C 7A AA F7 DF C0 2B D6
 AA AF BD 21 D3 BA 3E 07 17 84 8E B4 4D 00 04 E1
 61 A6 CD F1 52 98 26 30 E8 39 8B 12 05 EF 5B BE
 A1 4C 23 F9 A1 47 F8 96 E3 3E 95 6E EA A7 00 80
 D1 12 C4 77 C0 6B 8A DC 26 13 9E 62 23 6D 08 97
 F7 26 6F 23 F8 EB 25 06 8A 65 06 E1 D4 0E 5E EC
 10 78 C4 86 DD 68 7A 4E 4A 0C 21 E5 29 31 5C 5A
 D5 75 DF CA 18 6C 77 E2 B9 E4 1C 50 C1 83 16 05
 A4 96 E0 F5 E2 FB 3A 47 8C 80 03 D9 0F B7 1E 65
 39 5A AD 9E 49 72 B6 A8 F7 EF F9 3C A7 0E 0E 56
 E3 3A 10 96 B6 7F 97 00 80 44 6E 0F 9B E9 C7 48
 99 34 3D F7 34 53 74 C9 A5 99 4C B4 6E F6 CF E7
 21 D4 AE 23 D2 15 24 35 5A DC C2 0E E3 51 8A 22
 1F 68 11 49 A5 E0 4A A4 FA F4 4E B6 31 8E 5D 6E
 28 15 8B 2F C3 FF 12 19 FB D4 30 AA 3B E6 37 C6
 3D 6C 70 F5 8E 31 E5 7A 47 B8 F7 CD 6C BD E4 A2
 73 91 49 45 E7 EC 4E 2C 9C E4 F3 6A F3 35 55 BD
 EF D0 17 FB BE 56 9F 8E 1D B7 AC D2 D3 4D 8B FE
 17 6D A3 8C CF F5 39 24 4A 57 D5 43 6F 49 7C 65
 70 A3 A8 E3 5A 25 F7 BF DB B7 A6 0D 3B F6 DB 4A
 FE 05 58 8D 03 EB DC 9C C5 07 CC 15 97 96 43 8F
 4A AB 15 A8 96 93 D7 31 4C D1 65 08 9F AA 19 17
 12 5E 6C 2E D3 26 7D 06 CA C0 8A 27 D0 3B F6 93
 7E 7D 94 99 AF 28 E1 BD DA 75 E3 6B 3F D3 CA 02
 1D DB EE 07 65 4D D2 6C BA F8 8A AD F7 7C 27 D1
 87 04 1A A7 58 E3 75 C9 2C D5 17 95 12 00 0C DE
 D4 88 EC E4 1E B4 53 BA 0D 01 68 81 9E DB 95 89
 8B BF 87 A7 DC 69 30 FD 88 F0 46 77 C0 32 3A AD
 48 59 62 94 A7 FF 4D 62 5C 24 11 4E 8E B7 0C E0
 5A 6B 8A 3F D1 BA C2 3F 54 C7 5E D3 1E A9 D0 BF
 10 40 40 FB CC 1F 9C E1 E7 88 91 83 0A A8 52 2F
 B2 A0 43 91 17 3F 05 C1 64 00 64 78 5B 9F FB A5
 4D 55 A9 2F D5 AF 60 8C 2A A3 FB 73 F3 9F C6 47
 F5 F4 0E D3 33 6F 44 C2 C4 7C 40 18 3E 5D A6 32
 D1 30 4A 75 D5 CE 25 A2 C3 8D 9F E2 29 B1 42 BD
 F6 10 41 89 77 AA 08 BE 09 A0 B4 20 29 5C 8C DD
 DD 3A D1 35 DC 3D EF 99 E2 5E 09 70 35 13 33 69
 33 F4 DB AF 38 F8 1A B9 4B C2 5B A7 E0 24 E6 76
 84 4D ED 29 DE F9 A6 CE 1D 51 6D B7 40 81 0B 9E
 23 B2 E5 29 82 79 2F 0D 98 D8 C5 78 36 06 F8 64
 E1 03 14 A2 36 C2 87 E0 2F 12 54 3A F6 11 9F 4C
 77 D9 7B 62 EF 95 27 81 91 51 4B E0 75 0A 07 86
 B0 8C 50 0B C9 CE 02 6F 5E F6 4D C6 B5 A7 E3 11
 38 6E 0F F7 1B A4 E3 5F 1D 5A D6 E5 BC DB B1 22
 B7 FD FE A0 95 BA 64 8A ED BC 6D 14 6B 3E 1D 90
 34 68 22 F4 1B 87 2C 3A 35 4C A8 AE 55 07 37 DE
 2F 72 75 9A 74 6D 51 E0 78 D4 75 48 CD 9E 42 91
 11 9B 70 56 FB 52 55 54 BC CC 3B CF F7 21 3B 8C
 CD D9 A8 34 1F 8D 68 70 A8 F4 67 F3 F9 37 2E 98
 8A 36 6E 6B 16 CD CB 21 0D BD 31 17 DE 58 D0 2E
 3A 5B 2A B4 1F 04 76 61 9C 34 A4 61 BC 2E 9B D7
 F6 63 92 F6 2A 59 89 8F 8E C9 B7 FD C4 2B 22 73
 A2 70 D5 CE 8F D6 42 AA 91 F9 57 9A 03 53 33 3D
 EB 04 32 E9 1C 15 A7 E7 62 24 72 CD 12 B3 7C 78
 82 ED D5 36 F0 E3 59 40 7E 58 01 2F 84 DC 4A 72
 62 C5 94 1E 82 39 70 36 19 FF 0A AC C9 94 18 66
 55 3D BF 8B B2 7D 44 9D 96 08 F3 BB 60 CD 7B 49
 7A 04 31 54 BB CA E9 D7 72 85 F7 20 1D FC CA A6
 53 01 F5 B2 EF C9 F5 3B 96 D2 13 BF 64 DF 81 3E
 C0 95 1A 97 71 66 2E 8B 5D 46 F7 AA 8D A8 36 94
 2F 17 17 D7 12 E1 1A C3 28 1A F1 FD 6B E9 46 1F
 2B C6 14 C3 05 33 27 BD 43 5A 69 BC 71 68 DA A7
 2A C7 ED 20 AA 5A 98 8A C7 D9 26 2E C4 07 15 1D
 79 EA BD E1 C6 86 05 52 F8 32 97 F0 25 5B DC 03
 AE 96 E4 4B A1 2F 9C 96 A3 25 42 7D 34 18 75 A6
 5D 2E 1B 07 F1 2A 85 32 93 DC A4 91 02 4F 9E 06
 F7 1D 35 F6 24 80 4E 7B AF 9C 2A 3E DC 24 41 8B
 4A F9 8A 11 CE 83 01 D4 F3 EE 4E 18 F2 56 3C EA
 F6 D0 D3 A5 AD 83 33 1E A8 B4 80 16 ED 2B FC F8
 D5 B8 C9 62 A3 60 2B 1B 00 20 33 89 22 F2 77 8E
 97 C1 09 1B 6F F6 3E 71 63 12 86 72 D8 EC FA 2B
 60 B7 A1 51 66 74 F1 AF 2B 34 CE 68 FE 79 0B 73
 31 7B 7C 28 46 BB 9B A7 E9 10 AF 83 58 1A EB 6B
 01 C8 8A 0D 12 2D 96 E4 BD 3F 92 38 53 8A C8 A9
 D8 16 C0 AB 9F DA 9E D7 C1 39 2C DA EE 59 0E 22
 01 EF 6B D1 B1 B1 5B DE 5C D0 C1 B3 E0 36 72 1F
 48 67 4D 2B 74 76 C4 59 A3 20 9B DB 04 B8 88 2A
 5F 44 1D 96 FF 46 30 28 86 FB 87 3B 60 A7 39 4D
 F7 BB 71 77 A6 19 B8 4B 09 57 4A 23 F2 64 FD 00
 E1 42 AC 3F BB B1 C5 62 C9 B4 BC C8 F1 13 13 9F
 DB 96 BC E7 26 10 63 88 8D C5 C5 69 A5 09 77 C9
 6C 4B BA 4B 8B 02 ED 56 BF 53 5B F5 C2 BC 36 2A
 B8 A0 F9 92 DB B7 88 DC E0 38 89 42 3E 93 EF 37
 1A 44 3A C4 43 8C 09 71 AB D3 CD 10 D9 E5 CA BE
 A0 89 8E CB B3 D9 AB 64 E8 BD BD C3 AC 57 3E 5E
 94 1B BC 28 0D D4 F7 AA C6 51 E0 31 E4 48 8B 30
 5D 8A 4F BA D0 AE 14 6A 51 A6 7A BD 29 7E 41 8E
 85 B4 A7 68 EB 7D 72 E7 5F ED 85 8D A0 A5 D5 84
 9A 19 8F 36 AA 4C 09 C4 DE 88 4A E4 A0 3E CC 27
 9A B7 A8 84 22 8B 17 A6 EC D9 7E 2C 7A B9 B2 83
 AE DC 25 FA 58 6B BE FE CE D2 FF CF CF 1A 56 26
 CC 3D 0F DF FC AD 2B 0B 6B B9 05 16 E7 77 79 3F
 90 C6 03 50 2A AD 2F DA B5 00 20 9A 93 53 0C 67
 C5 19 5F 30 27 DD D0 08 11 75 BE AD 2D 43 D9 C0
 26 55 02 4E 18 04 D0 F5 4B 85 16 8A F6 27 22 C0
 E2 03 9A 4B D2 AC FB 86 7B 90 7A 5B CE 5C 3A FB
 28 8E 2B 73 0F 6D 5C 33 E8 A0 B9 5E A9 29 1D 93
 51 5F EF 25 26 C0 56 F8 58 AC D8 15 2B B4 56 59
 E2 F3 AC F1 48 A1 6F 14 59 8F B5 A8 79 D4 3D 66
 A5 06 58 FC 3A AA 70 EC 58 D9 8B 63 CD 69 BC 4D
 DA D7 D5 E6 88 6E 3F 11 DE B6 3A 53 41 BF D4 45
 F3 12 B3 45 52 E5 96 64 BC D0 60 3D 45 AB 75 97
 2C E9 4D D1 85 E1 6F 70 83 A0 E5 7F 7E DB D4 96
 59 D8 BC A6 9C D4 AF 80 C6 40 93 0E DD 8C 2D 5A
 E8 28 CC 76 31 C6 59 0D 5E EE E9 41 02 75 16 D8
 79 65 D6 56 DB 90 29 4E 99 2D AC 05 70 67 5D 25
 E8 23 89 64 C1 05 D0 30 5D 65 09 D9 2B 6A B6 5B
 64 D8 F7 FF 6D 5D 12 1E CE 43 C3 E5 2E FA 90 62
 62 15 A5 26 35 21 DD C3 F8 11 95 9A 13 CD 1E 7B
 5E 0B 8B A2 0B BE F2 81 57 C2 49 B4 B4 52 7C 2C
 F4 BC BD CF C2 C4 66 4A C5 DF 9D CF 94 66 19 41
 4B A8 92 45 B6 25 6E 42 B1 06 CA 90 B0 7F 4B 0E
 3D 96 C6 F9 3B 0C A5 24 85 7F 4A FA FC FF F5 FE
 8F B2 1F F0 61 FB 13 FC 2F CC D8 AA B2 A7 54 9E
 FB 1E A6 C4 46 C8 46 C1 09 0E 29 6D 4D 2D 06 04
 33 FD 8B 5C 2A 64 7C 03 2A 91 2D 93 8E 4E 8A BA
 B4 DD CE 4E B3 4E 0E BC B7 F0 A4 8C 9E 77 B4 A0
 C4 5F 0D A2 3D 41 30 E9 4D FC 04 6A 31 7D F7 DA
 51 CC 8D 4E 1D 90 58 C0 B8 0F 9C 91 61 CB 02 FD
 26 5A 83 EF 90 8B 76 5A 42 DC 4A 47 C4 39 1F D1
 ED A7 AB 08 29 37 8D 40 3E E4 3B AF 83 3C 96 64
 47 6D 81 9B 18 BC 1F 2F 63 29 D9 BA CB D1 A5 36
 61 AD 21 2F 8B 25 F6 37 5C 2E D8 E3 17 F8 50 E2
 3E CB BD 39 37 6D BF F4 A1 FA E6 4F E7 3F 4E 09
 B1 1F 2E F5 0B E2 DB 64 3A 8F 37 A1 4B A8 46 20
 95 36 75 6F 81 7F 9F 06 00 D3 D0 47 52 3E 8C 25
 D7 22 AC 12 F4 F8 A0 9D AD 52 1C 8C 67 DC 33 B8
 57 05 E3 02 20 27 C1 A5 95 A3 5C AA 7A 7F 08 AD
 2B 48 99 D1 A7 6C BC 5B 8D 33 ED 15 7C 7E F0 48
 B7 99 4D 5E 64 4D 9E D2 5F 68 5E 72 2D 17 17 94
 9C 78 D0 64 46 AD A7 22 C2 18 7C 09 D4 6D 83 4B
 88 3C 0E F2 73 7E DF C5 9E 83 48 1F AB BA 1C 5C
 9E 3D FE 71 90 8A 47 B7 9C 89 E9 44 8A 90 71 F5
 99 4E B6 AA D0 7D 9F 51 99 4E ED 6D D9 B4 D3 74
 C7 8E FD B4 C5 13 79 70 60 E8 13 33 3E 0B 42 E3
 63 74 CC B1 E9 6E 27 29 CF 21 60 3E 4F 00 F0 6D
 07 82 94 1B 51 1A DD 7B C0 7C 7F 42 10 6D 47 87
 E3 42 DA EB EC 14 DA E8 86 4C A1 39 AF 61 86 0E
 76 15 65 CA 35 0D 40 86 99 2A 3A E5 B8 07 40 77
 CB 2D 84 E7 52 B9 7D 1D E3 46 EA CA 6F 58 E4 3E
 2B 6B 4E F5 1A FD 01 EE 65 96 8E 13 24 7C 14 07
 45 D4 17 BE D3 CD E8 C1 E9 4F EE 39 CF ED AE E3
 E6 67 BA 35 48 89 16 74 4B 03 DA C5 57 E6 19 51
 D5 A6 05 7A 09 69 12 25 AC 8C AB C1 05 88 16 B9
 C5 86 5B 59 22 B8 6E 75 55 E6 79 48 E6 61 88 FF
 FB 73 9F B2 59 98 98 34 A7 59 8A 59 9D 38 4C 7F
 49 3A 27 6E FD AA D0 C2 90 13 1D BB D2 6A 7B CF
 94 32 6D CE D5 BD 42 8F 2D F5 4E 21 E1 4D CC 39
 3D 31 9E 2B 12 9C 52 36 BA A2 05 A8 C9 85 BB 22
 B7 8F 49 4C 8D A1 A7 A2 14 87 49 10 FA 8A 3D C7
 89 FC 5E 5B 30 57 D2 36 22 03 EB DD 2E C1 75 D2
 56 D4 29 FE 33 C9 EE B7 F2 2E 69 E5 BA C1 78 75
 19 3E 35 B9 FE 37 3F 4E 76 D8 D3 63 B4 90 DA 5E
 E3 A0 2F C3 54 F2 60 C5 B2 D1 4F 42 88 9C 46 59
 0B 25 20 2D 21 41 29 C7 79 58 41 F4 67 3C 0F AD
 ED 49 64 B9 EE 6D CD E8 4E 68 31 B7 71 C0 CD 09
 E7 31 B9 8A 42 42 73 6B F7 D8 17 15 BF A1 CF 32
 0C 6A 49 B1 8F E0 8E 2B 4A 22 0B AF 5B 84 EB 5E
 7B 6F 4F 4D E3 F9 48 3F 96 E8 26 33 2E D7 E3 4D
 2A F1 61 5A 23 8E F5 6A 47 A4 54 E7 9D B2 99 29
 83 45 8E E5 1D 9B A6 79 79 2E 54 7B EB D5 7B A6
 D4 59 DA 6A 4F 40 84 18 64 E0 20 F8 33 B3 2C C6
 A3 0D 11 5F 54 17 4F 21 8D 51 C2 A6 B3 DE 4C 8E
 83 9A 07 C2 DD 71 F9 AB D4 10 28 B6 96 EF 53 BA
 9B 6F C3 6A E8 E0 CA 54 DC 9B 8E 5E 05 C2 41 41
 BE 5C 18 60 40 D1 15 C0 E5 0F C9 E4 08 0E 84 F2
 D4 9E A9 98 D1 84 06 27 00 32 D0 21 59 48 90 B7
 34 A4 F9 51 B2 93 D7 BA BC 42 07 65 3C 67 DC 12
 3F C5 24 96 CB 87 FA E0 BC 87 84 5C 8F 75 13 22
 6C 8A 7F 36 94 42 E7 CF FE E8 39 1D 8E 09 89 DF
 A5 5E D6 35 52 6A 52 4D A2 46 36 E6 FE 4C 49 5B
 36 71 79 B1 B6 9D 9B 33 9E EF C4 43 E7 36 E2 42
 21 95 E9 97 6B E5 5A B8 C4 87 D9 2A 7E 64 5A BB
 23 01 8D 8C 18 D6 61 7A 2E CA 51 07 4A 85 64 8E
 16 07 C9 49 64 A5 A6 B5 38 90 2C 36 EC D0 2D 51
 B7 7B DD 53 8D A5 9C EB 03 F9 D9 A3 00 86 81 E4
 16 AD 48 6F 61 F0 AD 50 DD 4E D2 8B 90 13 F5 6A
 FC 54 86 D4 1C 1A 52 F9 A2 A4 5B EB D3 51 01 00
 E3 11 9D 43 EC 10 59 9F 72 52 1E C7 D3 A2 26 2F
 72 74 73 91 B0 EF 23 7D 04 CD 27 BD 24 44 F1 83
 97 4F 9A 2D 0D 10 65 DE 18 54 C7 A4 F0 C5 C4 89
 D0 DA 6C 47 81 8E D2 79 83 25 60 02 7C D0 1A 02
 1A B9 46 61 C5 89 30 1D EF 91 AC 13 6B 13 6A 8F
 C2 F2 0F 35 36 BD E1 D4 E5 80 E2 4D 07 FF EF 5F
 17 F9 84 05 DC D8 5A AA E3 78 73 E5 58 78 71 B4
 81 D8 C9 B8 1E 94 4C 1D 0B F1 1F C6 65 7C 0A 84
 41 4A FF B0 79 D9 75 1E 3C 0D 37 6E 60 57 83 FF
 C3 0E 70 5F 5B D0 C1 D1 6B 34 3B 72 38 4A 2C 7A
 C7 2A E8 44 FD CC 5D 15 19 86 17 98 3B AF 4F 10
 B4 61 12 F5 41 06 60 14 53 CC 70 AD C9 4D 07 86
 99 2D 61 37 2A 38 A2 08 9D 92 A1 0C 3E 99 E3 99
 35 76 A1 36 B9 EE 9E 66 A7 B1 3A FE 52 28 94 51
 16 CD 4A EE 3F D9 16 D4 33 CF 49 A3 D2 85 74 10
 70 F1 DF FC 0B EA 2D 65 C4 05 E1 F2 93 44 01 F4
 D7 BC CA D1 16 D0 88 57 84 99 A5 F7 51 CB A5 45
 2B CE 3F E4 A1 98 04 5C BC 61 8B 95 12 EA 25 5F
 CC 5C 5D 42 FA 91 EB D4 12 FE B5 A8 94 F0 9D C9
 9B 14 AB 2A 8D F2 88 80 1E CC AA 52 5D 03 93 75
 F0 EE 28 01 50 D6 5A C9 0D 62 07 B8 81 34 29 3E
 3D BE 8D F9 49 F2 4F 8A 07 D6 A3 EC 48 3F 51 AD
 66 D7 1E 42 7A A6 F1 C6 FC 7D 15 E5 B3 C0 D5 F8
 97 39 80 C2 BD E0 68 57 55 C2 AF F5 CF 38 DF FD
 9A AB 5C 6C 43 B8 B3 E9 56 1F 65 7A 6D FA 7B A5
 D6 CA 71 03 AD 02 7A DE 2E 40 61 09 08 DA EF 3A
 79 E3 E0 64 47 64 F0 58 E8 32 9C 76 86 C4 FB 9D
 97 FF 49 35 6C 5D 8D 81 8E 2A 4D 88 E6 1D 33 31
 43 FC DC 4B 2A 11 9D 5D 57 5C DB 8E D3 22 8F D2
 EC 73 2E 61 35 F2 70 8A F1 F2 15 BF 3F 9D 63 AD
 F3 B0 35 60 81 76 71 F5 4C F2 E0 D3 C5 C6 F8 D3
 AF B6 82 E4 B3 3F 6F F8 64 6B 94 C1 96 9A DD EC
 3C D1 3F B4 75 4F E6 33 62 C4 31 BE F6 B9 A8 09
 1E A2 20 E8 33 0E 89 E1 EF 87 AD 0A CB 6B F0 A2
 D8 04 53 7E E3 BC 97 35 35 F9 FD 5E 1C B2 16 CD
 F8 78 65 ED F8 5C 39 92 B1 3D D0 EE F7 01 DC F9
 52 87 96 4C A4 EF B4 A1 33 00 6C B6 62 D5 BD 74
 27 91 9D EF 24 15 C8 7A 21 CF 69 E2 AF B0 6B 43
 95 C7 31 8D 03 DA 6C 20 65 37 F6 5C B8 57 54 EF
 8D EE A8 86 1A D2 D4 54 AE BD A0 4F 60 13 FA 85
 E3 65 DB B5 7B 6F E7 95 9A 29 DC AE D9 ED 9A 65
 A3 D8 2C 82 0A 1A 3A E9 8A C9 1A 4D FC EA 9F 53
 C0 A6 BB 9B 46 94 00 63 F8 89 4F 2B 57 4E B0 54
 65 01 D4 24 1E 28 B0 C5 9C 24 BE EC 57 6F 65 7E
 7A EB DD CF DE F2 D7 D0 44 9F 57 54 33 54 93 F4
 1C 2F 1E 59 7F 65 B5 FF F9 20 C1 0E 58 08 62 21
 66 DF 35 55 33 5A 36 9E 87 20 01 66 7C 51 E1 3C
 6E DA 0E 47 43 55 65 B9 C8 B5 E9 39 88 D1 BC 53
 7D AE 3E A9 39 87 85 4F F0 1B 1A 1D F1 78 64 BC
 7F 8F B8 48 60 2D F5 DC 12 34 EB 86 F8 4E A9 C2
 D7 B6 FA 00 52 72 84 8A DE 6C 2F 43 A6 FB 51 C1
 12 69 6D 05 04 C4 19 F3 4D 2C 6E 04 C7 6F 8D 23
 87 29 21 E4 B2 21 A1 05 D2 21 EB 11 CA 3C 17 27
 B0 D5 50 77 83 11 16 61 44 58 6B C0 CD A1 28 72
 F5 89 2D 08 A5 F2 BB 19 DE 51 FB E0 DB 0D AE 40
 8F 19 BA AA 27 7F 24 F5 FE 47 18 02 75 82 99 BB
 DB AB 2B 8B 7A E5 A2 9B BB A0 2F 24 9D 7D 14 8C
 E3 A6 5C 5E 32 9C FD 04 97 0F 7A 21 04 59 C6 77
 CC 7B 8D E1 DD 02 1E AB D7 EA CA 23 54 C8 6F E5
 C8 0A 42 73 94 84 74 A2 34 70 15 FB A0 6E 51 7C
 E7 04 8E 2F 58 61 13 54 E8 9F 38 46 BB 94 05 68
 13 B4 D2 87 38 B2 D8 F4 E0 2C 98 C6 D3 C2 07 DF
 5D 42 93 4C 12 87 64 B2 03 C8 F4 0A C1 20 67 95
 4C F0 45 8B 84 3C 6A 8E 7C A1 52 06 3A A9 7F 6D
 0F F9 82 F9 C1 D4 AB 18 8B EE DF 70 90 F8 C5 5D
 7D 64 AA 8F D7 4C 90 D3 B2 9F 08 E5 AF CE 72 8D
 FA 3A 7A E9 02 EE C1 B7 61 A5 78 FD 47 F9 DC 6B
 E3 AF 5E 61 FC 82 BE 46 04 55 01 20 11 A4 90 30
 6E 2F 96 0D 55 5D 47 E5 5D A3 9E 31 0E B8 AF 48
 63 59 50 DA 69 26 58 72 0D B7 2B 0D 68 2B 17 3C
 AD 95 DE A3 64 A5 4F E0 67 D4 49 BF C6 A9 D7 DD
 3C C0 8C 2C 38 5F BC 19 E2 8F F6 08 F8 CD 4D 00
 AD B5 8A C5 0C 59 59 9F 07 9E D5 E6 4C 58 2F 9E
 4C 6F B0 E9 32 CD 8E 5D E2 11 9F EB AE 70 1B 55
 81 EE B6 A0 43 FA CC F8 DC E0 55 3F B6 C0 C9 A7
 92 34 98 0C 98 A6 4D 9F F7 B2 45 92 DF 2B B5 7A
 1D E2 EC AA 5F 47 B7 88 8C 1C 10 46 B7 77 9D 03
 67 9F 85 C9 55 2A 0B B1 0B 95 C1 CA 5C 92 AA 58
 D8 81 BD 1B 00 41 DF 96 18 50 53 FB 21 55 A8 A3
 42 96 91 48 59 95 1C A7 17 C2 6D 3C 6C 58 21 10
 AB 96 DB 12 21 E2 70 E0 83 24 AD 86 AD 0E 52 31
 44 BA 1A C3 68 2C 74 83 0E 78 62 45 88 BF 23 7E
 FA AD BB AE 90 22 01 D2 1A 6F 12 D7 91 6F 73 5A
 00 14 21 E9 21 D6 A7 E2 02 77 8D F0 26 45 92 2E
 E8 AE BB 61 31 CB C4 47 B1 0A A8 AF 14 2C 6A A0
 56 12 44 6A 87 41 40 71 F0 F6 2B 69 19 9A 7E 30
 C9 65 2F 92 E5 0D 79 0D 93 C6 08 90 10 2A 34 AE
 E3 95 D6 D1 95 FB 92 3A 8E 29 9E 23 79 58 6C 1C
 D6 E1 C5 70 99 61 51 65 2F 7B AD 30 4C DE 28 4A
 6F 97 E7 72 D5 A5 2B C7 02 10 B2 91 06 F3 14 D4
 E0 71 7B 5A 9A 82 E9 74 70 D1 2D C5 E0 CF 11 42
 C4 2F 74 E7 F3 E2 37 F8 4B 69 AB B2 48 BF 32 F9
 10 11 1F 4B 8F F6 33 85 F7 88 13 5A A7 C6 B5 27
 76 27 D4 CE 4B F4 7C 3F 02 F6 1E F1 C2 7B B8 2D
 85 52 41 CD 25 DA E3 9F 37 03 44 DC C1 C2 AB 8E
 C1 3A 04 46 35 CA F0 01 CE 10 E7 A9 36 9B 67 D0
 57 AA 1F E3 F5 3F BD 3E 72 B8 38 15 AA 4C 58 89
 2A 28 DD 3C 50 B9 97 FD 86 DB A0 A3 7A 94 BB F2
 30 A9 0E 7C 72 B5 DF 24 1B F6 E3 B6 4D A1 22 E7
 F3 90 09 E5 9E 89 B6 7C EF 9F 67 E7 17 AE 2E 1A
 BA F6 D9 FF 56 BA B3 22 C8 3F 12 E8 3D AB B2 21
 AA 88 55 43 21 EF E7 6A 1C EC 2F C8 A3 39 5D 3C
 0A 4E 8B D2 71 F2 69 48 93 3F 26 8D 6A FE AB F3
 C7 8D CF 7B 25 B8 92 2F 42 DD 4D A2 D7 CC 50 CB
 E7 68 C2 F1 36 5D AB CD ED 91 01 C2 57 01 72 B8
 C4 00 6B 67 AD 32 76 A8 D3 2E 36 90 49 AA 38 BD
 74 2B EC 24 0B 05 D8 F2 77 02 64 F1 EC 9F 21 10
 24 9D B8 81 4C 6B E5 C3 17 A4 14 A0 6E AA 73 D2
 98 34 E2 CE E3 40 CC AB CD E5 D4 F6 BF 6F EC EF
 13 21 14 ED 3C E8 92 34 14 08 2A F1 21 E9 21 A1
 FB 1F A5 C4 88 1B C7 9E F6 7A F0 52 C2 25 08 D6
 5E 45 38 A7 29 D8 FD 43 8C C4 55 90 3D 2F E6 28
 4B 03 67 0C 51 92 7E D8 A7 B5 28 7C F5 13 6F 20
 AF 0D 10 7F B1 1A 69 1D 2C 2C FE 07 48 25 C6 01
 0B E7 78 3C 39 4C CE F7 6F 65 37 99 BE 5D 3F 6E
 98 92 3C DD 7C 37 DC B5 F3 5F 67 DF 6A F1 46 35
 7C 8D 7A 5E 2D F7 FB DA 8C 30 D9 15 16 7A CA 34
 20 B0 B0 9E FD DF 14 4F C9 2B B6 3E 41 65 75 16
 77 5B 4D 41 F9 1F B7 0F DF CA 21 03 34 E5 90 78
 D7 FB 6D 7F D2 7A CA 23 96 55 1D 12 9D 66 7F 84
 48 C9 98 26 1B B5 0C B4 E1 A4 DC BA 36 A8 5F 7B
 D1 51 BE F2 B9 BF 4E 30 48 DD E8 F6 02 32 8D 28
 05 B9 83 18 15 EB 77 43 E8 1C EE 14 22 A5 CC 2C
 20 54 5A BB BA A5 AA 9B 77 75 EC 3E F2 97 67 30
 12 AF B3 50 89 90 FC 03 ED 89 B0 79 60 95 48 E1
 A7 FF A3 4A 72 84 F9 08 93 A5 A4 31 90 29 E7 0D
 3E 35 9C D3 10 46 5D 0D 36 05 54 2B DD 36 F9 ED
 ED 4C AF 93 A5 23 C9 E0 B2 A7 38 51 75 BE 24 15
 5B 7B 8E FB EC 22 EB 90 B9 27 CF 41 06 87 81 04
 E1 C5 CA BE 07 1A DA 94 16 93 E3 15 EC A6 3F 45
 21 74 E3 36 C9 AC 65 DD CB D5 1E 6B 1D D0 05 91
 B4 28 DE 7B CF 5A 4C 2B 6E 1E 42 FF 13 CA BC 86
 94 D8 56 F8 D9 48 9D F5 5B B1 D8 1A 0A 81 D3 E4
 DD C9 65 50 F1 E2 59 0F 43 5F 08 83 59 6B C5 84
 7C 2D 55 A2 66 96 33 11 BC 00 AA CC 4E 56 DF 79
 62 F0 EE 06 1B A3 E0 05 E9 BE D3 F0 5D 38 34 EC
 5C D2 E3 C1 E0 73 E4 8C 97 95 AA 28 27 EA 87 36
 FD FE 42 23 50 52 C3 E5 CA 76 17 20 0E F4 AC 56
 8A 55 75 1A 8C EA 80 7F 72 AF 36 14 F1 24 33 4C
 91 D7 97 EC 69 91 A5 B4 72 19 5D FC AD 80 74 DC
 B6 75 C5 A7 37 34 1D 97 61 B2 A2 7A BA 56 87 56
 6D 2C 34 59 7A 6E 3A 50 8F 58 6E C7 38 86 BA 8F
 BA 54 D0 B2 37 87 02 6F 08 A1 EF EC EA 5E 92 CA
 C3 C3 78 41 D7 F6 0B D7 72 37 59 77 2F FD 6C 09
 62 6C 9E 47 9B 1B CC BA 3E 6F 3A 36 7E B4 83 8E
 46 83 6A 09 0A 3A 73 F1 1B AA FE 07 AD 27 F7 34
 D5 81 D0 3A 4D 05 65 74 A4 2C 71 E5 FD 51 B4 06
 0B D7 DF 6C 1F 69 15 6C B7 AB A5 EF FB 02 2A 00
 24 A8 E2 AC 0D 94 3C F6 50 D2 F1 32 61 31 37 92
 F5 6D BD CC 37 4F 3E 58 4A B2 1B 55 C8 4E 01 05
 99 E7 BA 54 69 2F 5E 42 C9 09 23 E9 69 69 30 33
 A5 02 87 06 9D 66 C1 37 57 4D 76 41 8E F1 D0 55
 2B A7 5C 6F 9A 48 37 C5 6E A5 C6 87 81 8E 1F 2F
 2F 60 65 04 DA C2 86 03 61 08 EC BD 3A F2 2C 06
 6A E1 5B CB 94 9F BA 70 12 99 7C 54 52 C2 DD 89
 0F 1F 10 35 1C CF 75 FC 9F 39 6A A4 BF 47 E4 1F
 DC 13 4C 8E 01 08 0F 5F 60 81 B6 DB 03 A8 84 27
 EB F1 FF 65 CC 0E 90 C1 91 ED 04 80 A8 17 E3 64
 DE 19 BD 8D F5 B7 3F 19 AE 17 E4 49 BC E0 5E 98
 14 15 B3 31 BA 3A DE 9D FA A2 04 E4 C3 75 E3 B4
 F3 CF 35 B4 FE 22 25 CC B3 13 A7 10 93 AF 35 AB
 50 54 C8 E3 58 E8 A9 AE 8F DE 69 2D BF F9 49 D1
 BF AF F3 C7 FE CF 4D DE F7 FD C9 C7 07 27 E5 41
 48 2B EF 41 6B 67 69 9F B7 41 33 77 1F 47 56 CF
 FD D1 0A 06 24 D1 77 6E 71 EA BA A6 4C 77 45 AE
 24 00 E7 38 51 A2 27 FB 9F 45 87 0C 70 B1 94 73
 68 E4 13 AB 9A B6 3B 7E 38 E9 3F 94 19 A1 98 74
 B5 02 24 77 D4 E7 7A 2F 0C 17 F7 87 A3 BE 6D E6
 CC F2 18 D2 FA 98 EF B1 60 0E 8E 38 F0 FA 37 B3
 57 D6 CF D1 53 C7 DB FB 55 8A 1F 3F E7 52 D2 44
 06 C0 D5 FF 71 7D AA FE E7 1A F4 B1 43 C4 F2 A3
 B5 1F 8D F5 13 ED 9C D6 DF 39 A1 64 22 D8 B8 6B
 4F 1F 49 FA 88 56 B2 C7 0E 37 00 D2 00 CA 25 D0
 0A 28 E5 7D 62 4B 90 17 3A 4D 29 E2 F4 C4 5E D6
 ED 14 18 C0 E8 F2 5F 84 9C 3A 15 CB B8 78 69 1E
 E0 EC 67 C3 C5 55 C5 A6 98 CC 0E 3C A9 27 36 32
 B0 BC 46 46 8A 88 A6 7F 20 67 1E 48 57 84 1B 64
 40 77 7D 31 CC 9A 1D 25 E3 E0 B1 6A B0 E7 1F EC
 23 9C 7E E2 10 7B 01 4E CE BF 84 F2 0A C8 6B DB
 93 4E B9 02 9A E5 D2 30 B6 8A DD 90 64 A9 3E 61
 18 BD 8E B4 B9 2B 2B BA 19 9E AB 77 88 5D F2 D1
 BA F2 0E 3E 3A DD 57 A2 B1 BA 61 51 AC CE B1 09
 38 0D D4 72 6B 0A 7D 15 6D C0 86 AC 5B 71 2B 19
 8E A2 A0 04 B6 6C C1 32 10 87 90 43 9F 51 65 46
 6B C0 B2 34 96 E8 EF 8E 0D 76 7A 5F F2 EF 47 73
 09 7D 1D E6 4B 72 A5 95 88 2F 1C 77 52 ED 2B 85
 68 39 CD 77 B5 7C 29 77 29 AE C6 98 F3 BC 10 39
 22 9F FE 65 32 76 85 92 F5 85 C0 91 6F C7 37 D4
 03 E9 A3 AA 0F CA 0E 27 19 79 F4 1A 1B C5 57 24
 38 45 24 61 E3 0A C0 F0 BE EF 93 2B 9E 6A BB 97
 61 2F E0 15 4A D6 71 89 E4 46 98 AB 79 28 78 EA
 8D B0 6E 7C 86 19 91 A5 23 41 94 7C AC 17 44 B0
 CF 0B 3F 26 CD 45 32 D2 73 1D 17 4D 74 E5 B4 C8
 A2 45 39 DC 9A E0 48 CC A0 84 E3 CE E8 C9 8B F2
 F2 8E B3 2B B4 90 81 08 87 C8 BF 0F 22 91 89 CE
 A3 69 AE BB FE D4 EE AD 24 59 CA D5 8F FD 8E 0F
 97 D8 99 72 5F 37 BB 33 8D 5F 1D 0C 2A 25 19 6D
 FF 57 F0 A3 B9 81 10 D4 12 26 49 31 A9 EA 0E D4
 DE 55 B9 37 E3 EE 81 39 69 FF 4D 23 AE 1A A0 6D
 4B C8 56 51 6E F3 1F 7E 02 E5 E5 21 06 2F 0D BD
 E5 6A 39 89 77 E3 75 49 55 C0 41 CD 99 F7 53 67
 78 82 F6 D0 9B 51 B0 71 3A C7 64 23 0F 81 A1 B5
 02 00 38 C7 74 4D 4E 4D 67 D5 C5 61 4B 04 4C C0
 45 23 10 BC DF 9A 7A 00 91 93 98 50 B9 BE 3D 31
 15 65 75 61 68 94 78 16 E3 0C 09 6F 4E 41 4A 5F
 DF BA B4 E9 6F 56 3E C1 AA 3A 74 C0 68 D1 12 03
 EC B7 7C 87 9C 51 E5 AD 85 31 05 CC 46 17 8F 77
 66 21 64 CC 54 E2 77 7F 16 FF 62 D6 49 AA 94 11
 A1 23 F3 76 3A 7E EC F9 FB 23 88 90 71 E4 3B 24
 51 27 2F 77 3B FC 87 42 61 56 5F EC 1E 4F 93 35
 1D 30 77 60 6C 30 EE A4 04 02 AF E8 5B D9 6C C6
 B4 3B C5 48 2E CA 4E E8 C7 12 16 71 CF D3 F8 26
 0B 43 77 AF D3 75 AC B5 F3 50 5E 6C A0 31 2D ED
 40 95 0D 72 FA 8A 95 5E 75 F3 D2 22 AD 39 8B 99
 42 33 CB 45 4B 3A 18 25 97 79 FD 3C 63 F6 E0 DA
 A6 B3 11 88 1E 24 15 29 4E B7 E9 36 27 73 4D 3C
 15 7B 7A A7 6B 9E 79 D0 C0 E7 9C 89 74 2A 9F 52
 19 2C 89 9D 1C 90 FE B7 78 A9 55 E6 8E 83 4B C5
 11 FC 14 20 DB 9B C3 1A 75 A6 E2 B6 09 6D C9 4D
 5A 28 B2 F3 38 D2 EE 4F 38 D1 75 EB 73 00 E5 A4
 70 7B 97 7D 69 3D DD DA 33 A6 8D 5D 2C 54 08 E8
 67 62 44 D0 C7 26 3E 2B 5E 35 68 02 05 29 97 08
 25 B2 D1 35 61 D9 51 25 DD DC 54 2E 05 10 9B 36
 A0 53 1B 2F 97 1B 64 98 E3 2D FB 31 F4 BA F6 9C
 A4 DC 8A 45 AD A6 A4 36 93 2B C8 22 F8 02 9F 8E
 B6 2C 1B 5F A4 F6 7B 75 F9 40 8A 2A AA 2F BB 88
 F8 E7 50 BD 71 B9 4A 80 6B 59 D9 B8 22 26 93 FF
 21 94 B0 AD A4 72 2E 95 43 31 D9 14 4C D3 C0 0C
 E7 66 2D F9 00 1C B2 DE 13 E8 7C B9 B5 25 D6 6F
 E9 26 BC 4E F4 CB 49 CC 93 20 07 64 C3 63 A7 D2
 FD 07 CA FB ED 60 96 A8 C6 86 3A 63 A4 A4 4B 96
 C6 CD 4B 34 C7 4D 20 77 BD 9B C4 06 B6 82 C7 4E
 11 55 81 47 18 BE F1 C2 F9 F1 A0 5A 70 B7 9E 29
 1B 6F C0 CD 93 A2 BA 4E F7 1C 79 9D C4 A4 3F 62
 46 69 E7 B8 C8 48 58 E6 C4 98 A6 81 2A 64 10 EC
 53 7C B7 7B 56 79 E1 A8 66 BE BC BF 35 F7 5F 45
 DF 18 3A 1F 3B 45 75 18 5E 55 DD C1 FB DC 55 34
 BF AD 1F BA DE DA FF 9C 7D F0 60 59 9C D4 EF 75
 B4 B9 A7 F6 2C BD 40 29 08 0B A2 AE 65 2D AF 94
 81 3E B9 38 80 0C 4D C9 B6 F8 9E 01 38 59 1F 77
 12 47 06 EC 3D 9F DE F5 56 24 1E 62 6C D3 08 C9
 44 47 DE 75 64 AA A8 9D 4A EC 41 41 B0 FC 10 26
 36 D0 50 AA D9 1A 22 96 9D 7E A8 EB B0 EC A5 F4
 C7 37 56 D7 89 24 8F F7 0F 79 FF C1 8D 10 25 56
 BF 61 94 D8 16 CF A6 17 5A 0B D4 3D A4 3A C6 4A
 C0 D2 D3 A2 77 0B 4C 7E DD 0C 90 27 8D E9 04 5A
 14 54 E6 3C 58 B6 E7 94 99 29 82 D5 AA 8C 2F 61
 FC B6 6A 6D DC E7 31 E0 4B 21 69 11 25 36 7B A6
 FD D2 35 43 20 86 96 08 9A 32 FD 5F 5E 82 38 98
 B8 46 C6 B9 05 CD EB 92 DA 78 41 12 DF D5 C0 3F
 7C DF 35 87 62 FD 38 FD D8 C2 27 9A 10 30 23 53
 21 13 BF C4 AA 06 BA 5D 02 7E 81 68 CE 37 5B 43
 98 8F 24 4C 61 48 2C 52 21 03 46 5E 62 03 62 D3
 CE 3B 63 C4 0C A4 E3 A0 54 8E CE 55 E6 D1 BF 17
 76 7A 68 F3 CE D4 F0 22 C5 89 92 75 5F B6 BD 06
 2E 38 D2 0B C9 0C B4 B3 45 95 74 6E 74 57 45 70
 21 A8 18 D3 89 FD 17 D3 3B 92 58 B6 7C 86 F9 26
 D0 79 11 A5 3A 32 87 35 21 09 3F A1 A3 C9 E4 F8
 D9 A4 D4 3C DC BB 83 05 03 31 6A 8B 47 5D E6 09
 33 73 7B 68 E1 1D 54 1C F2 25 3D 3F 56 4A B6 93
 BF 9D E9 6E 3F 5F 87 9F B0 FE 86 47 7A 84 88 D3
 14 53 91 6F F1 E4 FA 7E E0 52 5E 35 2F 9F 00 31
 A4 FE 63 88 CB 91 C9 D6 09 8E 84 04 B6 DD 98 61
 AF F6 96 A2 C7 EE 00 99 EC AA 6F 5A B6 9D 7F B4
 89 1C AD 27 09 4A A0 7A 13 49 27 3D 5C 39 F1 04
 B5 5C 86 33 78 1F 8F FA 50 19 F0 EB F3 4B CB 58
 7E 86 7C FD 45 9C D7 65 D8 77 62 62 61 BB E3 B6
 1F EB F5 92 17 22 53 E5 52 70 22 B7 FA 5B 47 16
 EE 00 57 D8 B3 B8 A8 7A 46 38 06 03 D6 39 97 11
 D0 0B 46 E4 71 97 F5 2A 00 7C AD 65 5C 0C E6 82
 2D 97 DB 6C 94 5A E6 ED A3 65 2B 2B 79 11 6D 45
 42 7B F2 8E 0E DA 46 0F 61 B5 10 D7 74 8F B4 6F
 9F 8A FB 3A 66 D1 D7 25 F8 D9 CD 76 CD 0A D1 5D
 ED 5E 57 98 A6 95 DA 5F 0A 76 E2 B7 91 83 60 8C
 EE 31 FF 96 A0 D4 88 E1 C5 2D 37 28 D4 B2 08 00
 75 45 14 63 08 B8 83 3B E4 CD C2 D1 1B A3 D9 02
 34 C7 86 9B 0F D5 D6 46 3A A8 15 96 D4 94 94 ED
 E5 AD FE 6C 85 6C 7B 52 14 13 8F 92 3D 89 93 74
 9C BF 2A E4 54 F1 B9 FD F0 9B 21 AF 2B 46 8E DA
 35 AA D6 4D DC FE 73 56 C9 DD 09 43 CF E4 35 D5
 EC 82 61 D9 59 2F 0F 22 70 15 2A 3F 6C B8 C6 13
 5C 85 1A D2 DC 08 BC 1B DF C1 EB F0 14 77 5B 0D
 A0 48 03 CA A9 85 43 20 E1 3F 9F 92 CA E0 C1 A9
 9E 6F 16 51 08 F9 2C A3 83 3C D1 7A DC 8D B2 8E
 E3 08 A5 2F 67 6D 80 13 BC 8D 8B 9D EE DD F2 C3
 CC EB 1C 2E CB 42 D6 43 45 29 E0 94 18 81 4D 9F
 24 61 A9 65 AD 6D FC CE 71 43 BB AF A2 1A 43 D3
 32 B8 30 EB 1A 15 B9 0F 0D E2 C2 F9 76 84 C2 AE
 C6 27 10 81 E0 A2 49 54 A7 15 6B 7B 60 17 61 8D
 7E 5C F0 D0 91 28 A5 79 BE 70 D4 B8 9F 59 5E 97
 35 8E 44 3A E7 05 BD 45 65 E9 56 DA C2 25 E4 52
 5D 5A DC 37 53 54 84 1C 8C 63 78 ED 11 DD A3 0D
 FE 7E 96 9A 40 B3 92 5A 92 53 F9 99 15 AB A3 EE
 98 00 B1 31 86 A2 55 B6 2B 1F 22 6F 37 25 E4 54
 B9 00 34 86 F9 33 E8 3D BE 4C FA 46 3E E1 A6 2F
 B2 81 F7 EA D9 8C 04 F8 EB 85 D5 99 B3 3A 2B 52
 1C A5 F7 2A CD DF DB CB D2 6E AC C3 3E A2 58 2F
 F7 34 B6 3B 25 21 23 BD 1C 4B F5 4B C9 FB 11 B6
 CA 19 A3 25 A9 E9 AD 91 30 A1 24 F8 F5 8B FA 70
 F0 72 4F 70 71 88 56 96 3F C5 41 D9 C7 FE BF F0
 86 31 13 16 73 94 2A 37 5F 2C 27 F8 D2 F6 7C 4F
 BB CF 38 6A 42 26 81 D6 FA CF 8D 7D C7 E1 28 62
 AD 60 26 32 68 49 50 0D 5A EC A7 88 21 57 75 F2
 8A F2 E7 4D 9E F6 A2 6D 3F 69 BE FB 9C 6E 84 AB
 F2 C3 E1 27 80 A0 93 5F 29 88 DC 84 FB 83 09 25
 8B DC 7A 43 C3 4F 3E 44 15 5A DB 00 95 CE 20 C5
 29 A3 9F 8D 79 92 AC 2A 50 8F 4A 2D A4 79 B5 78
 9D F2 19 70 13 61 C2 6D 75 36 1A 8A 73 8B A6 1A
 30 59 D9 98 37 BC 64 A7 25 CC 28 B5 95 32 E9 D9
 E9 B0 3F B7 35 47 B4 2C 1D 48 C1 CD E1 11 95 B2
 83 7A 47 03 8F 15 68 B3 C1 16 9D FB D8 CE E7 71
 D4 32 E5 21 BB 83 DB 48 CA 08 02 02 6C 80 74 A3
 6F 1A 1B 20 42 AD A4 14 F2 D9 D1 F3 4A D3 CC CD
 4C 82 C0 E1 8B D0 22 A3 85 67 D1 7D 72 C5 6D 97
 44 14 F2 85 FE AD E7 9D 76 0F 4B 92 A2 2A E0 B2
 56 72 A8 60 1F BC 06 B0 02 53 37 71 85 C4 CA BC
 A0 F0 91 C2 6D 7C 10 CD DE C2 73 AF 80 BD 80 71
 AC B0 8E 5C 33 29 A5 53 E1 6C 14 E5 EA 64 14 1F
 14 AC 06 D6 6A FB 18 AE A7 02 23 EC 38 C7 4E F5
 C2 80 76 56 B5 07 6B D2 AD B1 10 3F B4 63 A1 2C
 38 B3 A1 AA 37 5B 16 82 EB E9 26 08 B2 8C 0A 28
 CB 90 17 E6 DD A9 CA 25 07 71 CD 2C 08 27 F7 C8
 38 39 1D BE 9C 48 BD 5C F9 83 FB 6C B7 65 8A E1
 DC 9E 25 B7 C3 68 8C 46 95 96 C5 61 B8 1B BB DD
 06 77 FE F0 29 84 04 08 23 1F FF BC 4B B4 13 A5
 A3 C2 2A 8B 09 82 5E 44 C7 8E 6A 01 94 D0 38 73
 A8 70 9F 94 28 8F 4E 1E C6 70 F1 D7 F8 C1 BC 3F
 21 65 4E DA 71 FA C8 72 6A 02 17 54 64 35 1C 0D
 73 13 43 2A 37 1E 67 A8 9D 08 82 22 54 24 AB D2
 23 3B 89 96 E5 54 2E 59 B6 48 39 CF CE 96 1E 99
 E2 17 77 EB CD 53 63 10 23 FE 4C C7 B2 DC 1B A3
 08 F2 AE 8F 1B E2 54 2C 7D 47 A2 6A 55 0F D5 22
 33 8E 89 5F CD 90 79 64 F6 65 39 E7 81 88 D5 5B
 7B D4 56 A5 90 43 49 71 88 A3 55 FE 60 E4 B9 6B
 B1 C0 B4 1D D5 4A A6 C8 62 12 C0 93 09 96 EE 81
 A9 E8 1E 24 06 BC DD 9E AA D4 A8 25 51 B6 70 48
 A6 D3 65 36 96 34 D8 E0 AE 06 8F 0B 05 71 18 87
 35 C8 F2 4F A7 57 F9 9E 44 92 00 1C AC B1 80 FF
 94 B5 EF 2F BF F8 65 98 2B 1C D9 35 3A CA 14 DF
 79 0F 90 2F 86 C3 1D 17 64 0E 15 2E 61 8A B9 E7
 15 65 D5 8F 67 8F 7F 69 84 E6 30 8F F3 36 29 94
 21 47 F5 F5 06 CE 69 92 45 40 AF 73 4E CD 2F CE
 71 C0 83 0C 5F 41 07 61 FB B7 A7 71 0D 78 36 73
 F0 D1 D4 50 CE 90 EE 6C A5 8A C3 41 E4 1C 45 6C
 7B 33 9B B8 61 EE DB 72 05 0A 46 DB 40 66 C9 91
 AD EE C8 31 66 73 F7 0F 86 84 AB 47 39 4D 1A 5B
 F5 0A 1D AE EF 9C B6 43 BA FD 83 42 ED AA B3 4A
 66 BF EB 5E 19 BF 5C C7 9D C0 9B 65 F8 61 27 10
 CE 2A 91 24 AA 4D CC 99 61 A9 20 0D B6 5D 9A 6C
 24 3D B2 07 2B 01 89 84 92 D7 56 A0 35 58 01 E8
 8B 9E F3 22 1B 8E 7C 54 05 33 D2 0B E1 4A 48 AB
 FA 6D 63 79 36 6D DE 0A DA F4 D7 CD 5C C5 C5 0A
 44 F0 EC 5B 49 59 05 26 5C CD 08 98 47 88 30 CF
 F8 DD FF ED FD 31 4C FA 53 81 45 AD 4A 9C 41 19
 4C A9 A3 19 45 28 BD 7E F9 67 52 C4 2D 49 84 3A
 06 FE DA 16 C2 0C EE ED E8 66 07 FE 7E 33 B5 9F
 68 37 82 AA 1F 39 4C 14 83 FC 46 06 35 F4 D7 FE
 8F 5A E7 D2 9C 45 43 44 C0 19 99 59 FE 09 DB 3A
 8E F4 13 90 55 08 F0 14 13 AC ED 79 66 4B 57 CB
 F9 ED 63 F5 20 00 CD CC 8B 41 27 90 7B 68 97 91
 AF 0E 90 D4 75 5C 8C 7E BE 9F 7B 90 BA F1 65 4B
 B7 DB DE 6B 99 D2 08 8D 1B 6F 6C AB 3F D5 C7 30
 D3 CF 76 C9 5D 53 87 E6 88 B6 15 19 C5 ED 78 A2
 A0 7B F7 C1 AA 84 61 E2 84 F9 9A C0 69 66 C9 94
 F7 2C 80 B9 48 07 02 BC BB 99 2A 1D 36 AC F1 2E
 5E 82 F1 E5 9D 81 7E 66 CD 46 B3 6C 96 24 1E 23
 8F 08 C6 BA DC 8E 88 1C 17 B0 B2 D0 D6 22 D1 D2
 AC 7B C3 58 73 6A 59 79 EA EB CF 05 C0 F4 7E E4
 3B E1 7D 05 60 62 40 BE 90 A8 FA 10 94 71 79 40
 CE 41 0E F4 1F 82 8B A9 1C FF 9C 15 71 82 F0 99
 C9 4F D1 20 A8 A1 9D 5F CE 94 BA D3 5F 9E 01 D1
 F7 A7 DA 12 DA 94 12 37 CC F5 9D 3D 92 1D 6D BF
 67 52 2D 54 D5 91 2E 33 C2 6D A4 47 FB 73 05 72
 BB 9A DD 66 8E D9 B6 D1 8F 68 1C 7E 9A 52 D4 D2
 01 F9 F5 CB CF D3 1B 1B 1B 41 50 50 97 26 54 A9
 FD 89 56 8B 57 82 E8 82 BC 19 5F B1 7F 01 AE DD
 F5 BA DA 0E 33 78 38 E7 BC 9A 8F E8 36 F0 6E 00
 99 35 E9 F6 90 71 8F 6E B7 39 DD 3F CA F0 C0 7F
 65 2E D1 C1 B4 2D C9 3B C6 B9 D6 86 CC C0 F9 37
 9D 69 F3 46 E5 89 09 5E E6 D0 A5 44 BA 24 9C C4
 D1 94 9E B8 27 32 25 18 73 DE B2 84 E5 FF 78 C0
 8C A3 D1 99 17 78 42 84 3C 95 DE 77 15 EF F3 46
 4E D6 4C 29 BA DA 03 A7 D3 24 31 FA 7D B1 1D 2A
 2B 50 8A C2 43 4B CF A0 D1 EE 10 0A 81 7F BB B3
 EE 54 85 82 3B EB 36 BD 77 14 9C 61 39 1D D3 BA
 4F B7 A4 97 0E 2A 57 99 15 A7 F4 E8 04 41 47 50
 43 D0 04 7D E7 F5 0F 11 7C 25 5F 4B D2 A5 7B CE
 6E 7E 3B 20 1A 21 5A 65 AD 6A 2D F6 C4 37 DF DA
 EE C6 0E B4 E2 7A C5 8D 2F C6 1A E5 5C 0E CC 35
 7A 0A 46 F9 9A 4F 07 D6 D3 49 6C 88 91 B3 B9 CB
 C5 0A 56 63 B0 86 D9 09 06 FD 0E 14 58 30 58 72
 45 3A B0 BD 47 95 86 90 6E 77 7E 68 CD A2 43 E9
 BA F6 14 87 57 81 41 24 27 9B 71 6C 46 35 B8 9E
 1C 31 A2 2A B9 99 36 D0 19 B8 1C 56 BC 06 DB 77
 0D 79 97 E0 E6 15 19 D2 FA 85 94 00 63 2C B4 40
 51 52 1D FE 5F AA 6B E9 F3 3A 43 04 BA 38 CA 3F
 5D FE 22 53 04 54 A2 A7 AD B2 1E 0D 75 EF 59 7F
 BA A3 73 6C 38 36 C2 43 E1 40 BB 9D DE 26 47 DA
 4C 2A 84 63 B2 4B 00 C9 75 5C 61 56 55 0F A2 95
 88 77 DF B8 7E B0 76 87 A9 C4 D8 6C E7 01 B7 7E
 1E 0E 9B 3D B7 31 A2 19 44 38 D4 27 54 88 97 FA
 CC E2 8D 5F CD 97 5E B4 17 7D 1B BB 72 1D 66 BB
 A3 BA 4C D6 1C B0 59 55 72 A7 AC 4A 20 83 1C 37
 4B 4E 08 7F C9 26 1F D9 60 48 29 6A C4 7A 4B 6E
 3B EE 33 DC 46 4F 03 E4 3B A5 73 87 72 D5 93 4D
 B9 A8 E3 F9 EE 13 0B 74 1D F0 31 89 63 E0 C1 3C
 2F DA 1C A6 52 A3 C3 5F 30 EC 5B 97 1D 55 12 E5
 C1 04 FA 2D 3E 10 DB 17 F5 44 EA 88 89 13 07 E2
 D5 3E 4D 46 35 B8 DE D6 18 6E 98 FA A1 A6 18 FC
 77 7D A9 71 10 61 C3 76 0F 6F EE 8E FC 21 D8 53
 20 B3 3E E7 5A 1D 1A D0 6A B8 7B 15 62 5C AC C5
 2F 26 B3 49 6C A6 4F F3 66 37 82 E3 55 8C 1D F4
 AB 8D 37 62 0E 31 B5 02 3A 48 19 2C 42 D8 10 4B
 3C 35 1D A4 4E 26 85 F6 48 C0 E0 CA 5F 62 1D 30
 8F 50 E8 2C D8 23 1B 92 46 7D 77 0F 07 79 50 2D
 42 3D E4 76 13 31 0A 6E 03 F9 E6 4B C7 07 F2 89
 CF C6 5E F8 99 85 EB 5B EE 89 15 A2 E9 C8 D0 D5
 68 C3 41 8D 4F BB A4 A6 90 EE 2D BE 4B 20 44 EF
 B3 92 AA DF B0 1C D0 8C 53 06 F2 E7 F8 7D 30 11
 19 28 4F 1F 1B 95 40 02 5A B7 4F 40 29 BC 7B A3
 14 BF 11 5E C2 00 1C A0 C8 74 64 F0 4B 64 E9 54
 56 EA 8F 25 0F 8E B9 49 45 F0 1A DE CE 29 68 D2
 AE CF 18 21 DA 0F D1 97 17 36 B3 D2 FD 7C BD 43
 7F 23 2E F0 0B 36 92 EE 9D 14 45 25 D1 4D D4 25
 51 BD C7 E1 42 FB CD 27 E6 E9 A9 5C 8D 66 3D 61
 92 13 F0 DF C6 B4 F7 C8 06 61 78 88 81 EF 0B 89
 40 F2 6A ED 5F 48 2A D0 D2 69 F9 7C E2 4F 71 1C
 03 6D 58 D2 0C 07 83 BB 03 13 C8 8B 61 44 73 6F
 74 14 B1 A7 BF A3 45 4B 46 8D 92 8B 39 26 92 01
 AE 05 A0 AB 1D 7A B3 3E 0B AD D1 63 4A F1 18 3E
 28 AB AF CD C1 63 E9 EB 89 F6 CB E6 1C 3B 87 32
 A7 D0 DD 22 35 61 5D 44 33 5C E0 18 03 8E 2C 59
 B7 CD DD CE 82 BD EC 0F A8 1E D6 74 84 B3 48 63
 3C CE 73 C4 5E 8A 44 3E DC 9E 07 20 0B 12 61 36
 5F D6 D1 FF 78 45 0E 55 C6 B7 8D 25 60 54 58 F7
 A0 6B ED 56 0E 2E 20 43 AA 91 CE A0 1B 9D A3 2B
 98 E1 F1 38 B3 B6 B7 DD C2 F8 08 10 D0 E1 03 3F
 0D F4 51 54 08 28 08 1B 0B 8D 2D 95 C0 92 13 E9
 B9 3E 41 B4 DA 3B 9F 6A 2A 2B FA ED 4D 21 71 0F
 72 3C 51 73 A3 25 FA 47 91 64 E9 83 69 11 D3 BB
 D2 87 4C F7 97 FE 4B 0D E0 A0 2D C8 68 A7 A9 1C
 A0 C3 08 66 5E 4F D4 0D B6 A5 E5 23 67 B9 CA 98
 64 72 B8 CF 79 59 58 31 F1 B8 B7 8F F0 39 6D 27
 87 2D DD 22 5F 7B BC 04 3C EF A2 EC 5D 7E E9 FE
 E0 0A 46 6D 83 95 AD 6C CB 54 6A 57 48 EF B3 AB
 2E B0 4E B1 81 76 5C 06 D0 FD F5 1F 69 D5 6D 3F
 79 35 3C 9D 48 13 0F E2 C0 39 F8 B9 0B 3A 8F 4F
 91 1D 45 05 49 F2 A5 BF 95 F3 E8 E1 A3 4A 1F BE
 EA A5 09 F7 DB 12 EA 2D 00 E1 CF 7A FF E0 AA A0
 CC 10 1E CA 91 69 66 2F 4B E3 73 24 F2 53 ED 08
 94 11 4E F9 FF 93 7C C2 3D F6 AD 23 29 B0 79 58
 46 EB 9B 3F D2 00 E0 8C 8D F2 E5 54 6F D6 AB EC
 B9 DD BC CD C6 28 3B 6F 82 D1 48 49 87 2B F4 82
 C8 64 69 E8 26 48 C0 C4 EE 31 80 81 86 DB 7F D7
 53 FE A3 C2 99 A5 65 E6 65 4B C0 1B 51 01 EB 33
 89 DA 53 08 9D CA C3 CC 63 34 48 8B 45 2B 7B 1D
 1C 06 6F 3A ED 84 18 22 FF 5A 85 D7 53 F2 D2 71
 7F 5E 5B 71 51 DF ED 10 DA 12 E7 90 08 5D F8 45
 73 8D 7E E6 73 99 47 57 14 33 A1 78 77 F4 11 19
 9B 3F 8E AD 40 CB FD F3 EF 45 40 18 76 93 1F 70
 26 7D DD 8B CD 33 0B 54 A0 82 0F 33 EB 36 65 0C
 FF 68 0B 4A 9F 70 2E 62 E2 1C 97 BB 0F FB 72 A5
 A4 48 B2 CD 38 21 40 9F 66 7A 03 35 58 AA 00 24
 37 BF 23 DA 1F 60 B3 70 36 D6 C8 F4 0B 6D F1 B9
 C4 94 BE CD 72 63 1E 11 32 99 E7 A8 30 77 F7 24
 0B 43 C4 83 D2 A9 34 5E 97 53 92 74 8C 92 82 13
 56 71 0E 39 9F 42 EE 20 C2 04 4D AD C9 18 A7 81
 36 45 83 18 B0 28 0B C8 52 CC E1 4C 50 F7 CC 55
 DA D1 FB C9 2D 04 32 87 9B 2D F9 FE FF 31 30 AE
 DE 2C CA 79 A9 15 6A 1B 39 43 66 18 E9 4A 58 FF
 4F AB FB 7F F5 E4 B5 A4 43 03 8C 89 36 18 C4 C7
 BB 16 6A C8 95 EF B6 59 85 A1 80 00 A4 B5 52 CF
 A7 A1 BF 12 F8 D7 9B 71 3C 33 2D 0D CB 74 ED 1D
 F5 FE C3 25 D9 C8 2E E1 4D 85 44 A8 3A FB 20 25
 49 25 27 30 6C B9 32 2D 1C AD 8D 8E 18 85 3D 77
 25 03 00 3E 02 37 F9 00 0E 9B 8B 4B AB F6 DF 52
 36 B2 9F 3D 80 A1 50 08 93 5A B2 F1 AA E0 B2 F0
 FE 2C EA 9C 3D AD 9D E9 30 AC FA 91 37 EC 95 5F
 7A 55 DF 94 AE 18 94 DD 88 05 E2 0D CE CE 14 98
 80 46 E5 25 AC 76 6F 94 52 D1 0E 3D 9C 2A BA 35
 54 79 5A 44 DA AD DB 1B 84 70 97 06 66 29 E6 E7
 79 DE 79 03 3D A1 95 36 2D AC 4D AF 50 5C 6C F4
 45 9B 48 6C C2 E4 E6 EE 73 A1 1E 21 3D 91 14 39
 54 96 F2 7B 01 3C 4C 40 68 A2 90 55 5D 12 D6 62
 50 E1 77 C9 9A 68 70 74 CB FD 15 FF 2E 5A 37 C8
 78 97 30 EF A9 4E F6 2B 46 68 90 E9 06 89 59 14
 50 80 C9 71 9E 98 DB F8 82 31 3A 55 AE C8 14 12
 EE EB A1 67 62 2C 1C 91 38 F9 E0 DF F3 AF B4 6B
 E3 D9 60 AD 09 92 A4 AC 05 D1 BA F9 87 B7 A2 32
 65 A1 EC A5 71 2F D4 CF 5B 68 B1 56 FA 4F 28 1A
 8F D9 D7 45 67 A9 50 B9 F5 86 3C 73 90 22 D3 C5
 03 02 3D D7 54 44 B2 12 03 1D B6 72 E5 96 D7 F7
 CA A6 DD 03 08 80 BA B0 8F 8F CB AD F8 03 3A CB
 A7 E4 1B 42 C6 8C FF 6B 83 31 74 C9 7C 5F 72 37
 33 9F B2 65 87 0E D0 C6 F9 88 5D 78 D0 3B 11 A2
 ED A1 B6 DD D8 4D E1 E1 A4 C9 E3 68 F5 E4 3D 0A
 07 45 07 7B 18 67 E5 DB EE 6C 4A B1 49 C8 B9 03
 FA 77 04 DA 5D 36 AB 94 5C 03 D2 80 EE 19 4F 82
 DB EF BB F2 68 0E 51 5B 79 61 B8 4C 3B F6 10 90
 03 48 4F 3D 07 C6 6F D0 CE 62 31 2A 57 AB 61 33
 54 21 5D 3C 66 84 5F F4 CF 9C 99 D6 B2 54 A4 29
 14 CA A7 A0 91 A3 2B 4A C3 EB 1C 35 85 1A 4B BA
 D3 1E 6A D1 41 14 88 C2 56 FA 9D 2E A7 31 2E 77
 0F E0 1A 7B 8B 8E 48 36 B4 79 EE 9B 4B B3 E3 93
 23 1F 83 D4 38 55 59 AD ED 10 E7 D3 7B 8C 23 34
 14 1B A8 EA 0E D6 32 55 53 64 92 C3 6E EA A8 94
 C4 ED F8 DC E6 6C 5F A1 7F BB C5 0F D6 54 C7 8D
 4E 20 E8 4D 3F 10 58 36 51 DA 19 7E AE 79 25 91
 6F 7C 94 C8 EB 7B A5 84 8C ED CC 03 EE F5 C1 5F
 E0 19 DE 30 4C 0C EC 7F F9 CE ED B5 5F A7 55 35
 B3 23 94 54 08 3A FB DA 68 92 89 8D D0 EC FE 22
 EF 1D 96 2F FB 84 05 54 25 B0 5B 05 44 81 F8 D9
 CD 1C FB 38 5B 95 B4 12 7B 3B 9F F2 53 68 FF A7
 19 FF 37 2A 2B 84 44 13 CF 02 7B A0 73 75 BA 02
 61 BA 3F 8C 84 A2 C0 65 5A 8F 02 F0 3E 96 8F F3
 21 59 E5 7D CE 82 55 85 DC B3 05 C5 F0 52 E2 BF
 CE 3F E6 81 A2 81 4B 1A 01 94 1F EA CA 4C 34 01
 57 59 BE 80 2B AE D5 D8 0F 0E 85 1B 07 E5 A3 D7
 2A 2C 0C EB 8E DF 04 05 27 68 30 25 67 2E 29 85
 F7 6E EB 79 1B 61 97 CC 77 0B 7A 15 90 82 23 93
 18 81 01 04 2E B2 C1 19 00 79 0A CB E3 AE 00 83
 48 AA B6 77 2C 7E 8C C5 97 EE 93 C4 E9 06 A6 AE
 0A DC 9C 73 B0 7B BE 43 49 7C 5A 1C 2B 08 CC B0
 7A 69 B8 37 08 82 C3 3B A1 73 CE A4 BE 55 31 2C
 B5 58 1E 03 F3 38 CD 7C 24 81 C3 D7 06 42 B4 47
 2D 40 7C C3 4F BA 94 17 52 AF 78 7E B2 B3 CC E9
 CA 7A 44 42 36 BF AE 3E 69 4A 09 E7 53 D5 99 2C
 74 7A 7A D6 86 68 B9 54 2E 17 AF C9 BA 9B FA 96
 6E E6 04 8F 64 BC 79 8E 34 F8 31 92 34 32 ED 81
 A0 49 ED 28 5D 49 41 14 F6 28 A0 8E AC 11 F4 E1
 41 6C 78 9D 89 D0 44 B4 A1 3B 45 FC 28 DD 03 C0
 DD 37 86 FD C2 F5 7F 91 B8 74 CC 0C B2 41 6D 27
 69 A1 CD 97 2A 51 38 8D 18 7E 57 92 00 44 64 3C
 02 62 39 F9 DC D6 69 41 AC 50 2E D1 A2 2A 6A 27
 8C A3 7D 89 08 15 A3 CE 46 78 E5 90 51 22 55 BA
 E8 5D 7C B5 1A B3 30 F3 21 78 DA F1 E5 BD 1F 62
 55 AC FC D1 64 67 A5 12 C6 0A 7C DC 1D 95 01 1F
 C5 F5 30 36 60 75 B6 1D 42 E8 C3 CB 10 2D 4E 4E
 36 EA DA E5 D9 3B AC 07 20 70 4E C5 E0 C9 A0 09
 E4 2D 26 B1 3A B5 54 78 4A C7 9F 61 97 9B 1D 12
 2A A8 17 10 51 78 59 34 57 B5 D0 06 39 22 0F 81
 FE 5D 9B AC 09 2C 7D A5 53 1D 90 8F F7 F8 A4 6C
 1F 09 0D D9 62 B4 23 18 0D D3 CF A6 6C 99 1D 65
 C8 07 E0 AB EC 6E 01 84 60 45 26 DC 1A 5A 99 37
 BB 47 43 83 9A ED 22 9A 27 99 39 9E 18 32 FB 82
 76 5D 7D E0 41 00 80 44 6C 54 6F A9 66 26 C0 97
 09 39 31 0C 60 D9 CC 33 08 1E C2 BC 3D A9 6D 68
 C9 F3 D3 C5 79 AD C1 1A B6 34 A4 DD E3 46 EF 0D
 66 C8 C8 1D 6B 8A 9A C0 D2 0D 93 5D FE 53 48 5D
 99 FE CC 07 34 57 47 7D 6A 00 D9 DE C2 E4 28 59
 4E E9 F5 93 8F EA 3B E9 64 4D 26 56 95 85 57 24
 29 76 AD 84 23 5D 64 E9 0D C5 46 16 CF DF 92 97
 1B CC 31 F8 55 55 CC D0 F7 86 85 E6 CA E0 B7 27
 E3 09 53 DF A0 D3 25 66 70 5E 23 3A B5 2D 84 DD
 4E 97 F4 82 14 67 68 FB DF C8 99 ED 61 49 42 37
 C8 0B 1C 55 68 91 48 80 83 7A B1 22 1F 50 60 FE
 28 86 02 2B DC 82 F7 0E 66 46 1D E7 5C 82 D6 36
 8A 75 EC EB CD DB 33 B6 29 EA AE BF A3 C0 18 4F
 51 D3 8C B7 23 46 FF 34 4F 1E BE 6C 93 DB D9 8C
 37 27 C3 FD 3B 31 62 3C 2D 07 DD A0 B1 8F 69 A0
 AD AC C0 EB 78 A7 78 F4 6C E1 EA D2 9E C1 D1 8F
 82 07 BD BF 62 DE F8 82 24 47 06 E2 75 96 CD 11
 34 F1 5B E3 D4 30 AF CE 35 56 6F CC 80 BE 0F 93
 ED 14 46 5B 1F E2 2E 07 4F 79 D4 99 80 7C A2 10
 15 CD 0F B9 BD 8D 65 73 91 5A FC 05 75 D6 DD 27
 03 46 0F 74 C5 E9 38 CB 46 FC CE 91 C9 CD AD CB
 DF 7E DA F5 C3 AC 13 0C E5 00 3A 61 C8 B3 DE 24
 42 2C 0F 19 3C FF 67 29 64 19 20 91 91 3A 10 B4
 B2 6B BC C3 01 D5 5E 97 87 B5 6B D1 C3 F5 77 E3
 C3 62 9D A9 44 1B 82 D5 DE 3F F1 42 82 E5 F0 10
 17 4C 64 E9 B2 A4 26 4C 97 D2 0B C6 D0 C3 E6 22
 DE DC 0C 5F 9C A1 2D 7D AB 6C 22 07 FB 9C EA 8C
 AF 33 78 B1 30 48 A8 FF 29 46 F0 39 B1 FF 7C 42
 00 32 11 70 56 6A EC 9B 1F 73 B1 45 B9 38 BA 1B
 AC A4 5A 06 0E 2E FB EE 80 04 83 9F AE 15 A6 A8
 DB 79 E5 DF E8 D8 75 FB C6 B7 94 89 8C C3 54 BA
 80 65 B2 87 0A E9 B2 18 14 6D 10 DB 89 63 6B 40
 4B 3A 4D 1D 8B 16 03 C9 99 AE 1F E2 58 C1 AD 26
 B7 99 94 F1 D3 CC F7 AF E2 4E 6A C5 20 3D 83 93
 A9 5F 12 63 D9 0C 05 29 78 D1 6D 13 1A 2B 52 99
 2C 89 8D 4F B6 30 5E E4 D3 B7 EB 91 50 5A 09 13
 62 DB 47 5E 11 5A 51 93 8E B0 94 86 C0 D7 5F B5
 90 D9 48 FF 6D EF 59 4D 24 06 A0 E7 8D D8 13 AE
 4F 11 C5 1A 26 FD 4E 1B 5F 48 BA BF 0A 87 54 C0
 B2 0A BC 7B 8B AD 9A AC 35 ED 13 30 0C BB B8 5C
 56 BB FB 7E F5 18 E2 38 42 FA 88 B6 B9 34 E4 72
 4A C3 D4 A6 6E A1 30 E1 4C 37 0C 10 A4 54 54 3F
 FA AA 76 3E C3 9E 6E C0 EE 7E 7C 6F 5A A7 37 E2
 96 82 92 CB A9 C0 F2 F8 64 BA 0D 92 B4 32 54 7E
 72 E9 99 5C 8D 00 47 63 D5 06 E6 B4 3E D2 56 75
 8F BA 12 32 B2 4A 38 A1 4E 59 75 1E 1C 07 28 D0
 9D 25 01 E4 8A EF D8 46 0E 29 7F 41 B7 5A 15 2E
 60 67 81 1C 47 2D F5 26 86 3E F2 BA 94 F2 BA C9
 D3 BD 4F F2 1B BD 21 06 07 91 E6 DB 64 C9 92 B4
 0B DB 5A D6 DD BC 1B 3D 76 0F 1E 7A F9 41 4C D4
 4D 4E 86 74 5E BB B9 2B 72 70 19 AD 63 F1 47 D2
 F0 84 48 E0 37 B5 B7 B9 29 88 00 6B 7A C9 19 64
 39 97 C4 B9 D1 EF 73 3A 2D C3 36 73 51 1B EA 08
 6A 71 7E 03 B0 B1 47 25 DC F9 B5 16 C3 78 D0 F7
 C8 6C B1 6E D2 20 7E 49 77 C8 56 69 3E AF A0 2C
 21 22 10 3A D7 13 01 66 6E 16 DB 3F 66 86 67 1D
 A8 44 2A 87 33 D4 26 57 56 F6 9C 1B EB A8 5E 72
 7D 3B 50 EE 44 B0 2E 6A D8 88 CC 13 5D 99 B7 32
 89 5D A7 2C A9 F2 AE 5A 32 66 59 19 CF CF 73 C3
 06 DC 6A 19 99 88 5C 96 4C EA FF 17 C9 71 9A A1
 63 4D B5 E9 1E 99 D4 40 15 1F 3B A1 E0 5E 58 26
 08 69 E8 76 36 54 C5 26 71 EE 7C B7 8F 8F 68 E4
 47 35 10 95 69 0E F9 F6 D6 F7 AD 13 A3 E2 52 77
 53 D3 78 F3 B6 C4 13 9D 53 F8 BF E5 9A 2C DA F1
 29 04 D4 E3 F6 D7 01 B7 EE 5E E6 0A 4A A6 BD 3E
 15 81 6F 4C 48 AF 2B 0A 1F 80 AC 3B 1F F8 6E 81
 BF 47 D3 16 D2 D8 0F 8B 06 0B F0 38 0A CC 65 D4
 E9 3D 0E F8 65 1C 55 2D CF 92 D1 88 85 C5 E2 9D
 69 2E 5D 9C C0 EF 86 0C FE 9F 51 01 61 47 AE 3F
 29 6E 16 BD 7F 4F 01 91 C7 EE 13 D7 71 A6 77 3C
 EA 4D 74 92 44 71 03 9E 55 3E EB 39 92 01 7D B9
 1F 8F FE 6E B2 FF 04 3D 09 FD 74 3F 30 99 3A 84
 43 A9 37 5B 74 7A BB F5 D2 92 F2 ED 82 B4 D0 DB
 52 9F A7 DF 24 9A BB F1 16 26 9F F0 26 1E 78 8C
 1B C8 24 41 3D B9 A6 4A 62 9C 13 C9 4A E4 94 93
 28 59 E6 A9 85 54 EA 57 30 A9 4F A4 9A 06 57 DC
 F9 7C BA DB 2D E4 01 F4 80 93 E9 74 6D 9A D2 E4
 3D 34 54 9D 81 CA 40 F9 4F 9D 13 B1 CB DE E0 BD
 B4 8B 75 4E 6C 9E 33 70 00 92 40 E7 D6 33 C8 9E
 0F 6A 4D 9E C0 23 F3 D8 22 0A 1C C1 7F D2 6C 2E
 2E D1 B0 AC B4 F4 E7 F9 6A EA 51 B1 AB 03 9D 92
 3C 7B 78 6E 84 46 71 FB 78 2B 75 52 EB E8 1F B0
 38 01 63 2E 83 B7 71 E9 03 82 E9 EC 7F FC 51 7B
 F4 84 1A CE EC D2 E7 69 12 B2 14 FD B9 63 54 26
 CF 33 9C D9 04 C9 56 84 AD 75 37 94 6B 39 10 4C
 3E DF D4 BF 4E 49 F0 5C 46 93 A0 46 B9 C9 FC 79
 3F EE 75 7F CC 89 43 DD A3 E3 6D 02 FB F8 DE C7
 08 34 C7 A0 D6 D4 AD A1 DB BE 42 73 80 E4 DE 17
 50 69 81 3C 20 8A 77 EC DE E9 56 00 00 27 67 82
 D7 7B E8 CD 8E 1E DD B7 FC 8D 18 22 A6 1D 26 E3
 8B 0F 9D E3 A7 B6 BC 31 81 C7 2B 19 D0 BB 18 11
 57 BD C9 13 99 18 73 35 D4 18 BC 37 4A CC 45 BC
 8B FF 2C 85 82 8A 1A 11 53 F4 AB 6C 24 6A 28 81
 82 C9 91 2A 73 31 67 DE 48 D2 B2 23 1E C4 D9 C2
 DD EF 9E 3F F2 21 29 F4 BA 25 89 08 F1 0A B2 59
 DC 6B D7 BB C0 C2 F9 9F F4 66 5F 44 B8 9D 9C 0C
 86 C0 A5 FB 69 56 CF 4D 9D 0F A9 75 34 A7 74 9D
 77 1C 37 95 5A 13 5C C2 C2 57 FF 5C 8E 41 9D B7
 6E 61 17 C0 A8 87 F8 F8 98 93 08 EE 8D 4F 38 3D
 01 95 59 B4 1B 0A B0 3A 40 3F 70 EF 4E 2C 7F EB
 2A 6B BD 14 C9 E0 43 95 FB 34 71 6A 5B CE D6 D9
 C8 64 70 39 75 0E 00 FD 98 49 B0 34 26 DD 82 80
 5A F3 14 78 A8 38 75 65 A6 CA 24 2A 52 79 93 CE
 8A AE 3A 35 76 59 9B 87 4E 4F 2A 8A 13 7B F8 A8
 62 87 7F 17 BC 6E 3B 6A C9 7F 05 97 5E E2 30 DD
 F8 9E 77 C3 2E E7 04 AC 2E 8F 1A AD 73 CF 22 29
 64 85 F6 E2 2D 31 6B 86 19 98 0C 79 98 15 F9 D0
 E5 70 99 69 9C 8E 78 5C 50 81 D6 7A 0C 21 1B 5D
 30 36 B2 AA 80 1D 43 5E D1 0A F9 78 3B BD BE 43
 5D 47 7F 19 9B 05 F9 D4 2E B0 D3 A1 85 FB 58 A8
 41 AF 61 C4 1E D5 D0 C1 38 ED 3E 34 B4 00 02 D9
 E1 C6 E6 3A 7A DE 30 44 C0 F3 DA D2 79 1F 16 87
 CA 3A B3 80 2E 0C DB 3C 22 4C 73 BC 46 62 A0 99
 4E 58 EA 6A 21 08 FD D5 DE D3 33 B6 83 F2 42 62
 7B 7B 92 CE FA ED 43 8A 3C 74 72 E3 BA C6 DF 3E
 4A B9 E4 FC 9D 31 9F F4 3D 39 B8 48 EE 06 B7 61
 72 FA B0 E6 35 2B 94 F0 12 8C BB 9D A5 7A C4 B9
 50 6D 9F 54 63 3C 62 B7 73 71 18 95 8F 8E 6E 48
 5C D5 84 2B 5E 39 CD 46 28 B7 BA 89 C6 F7 E8 3E
 48 17 8C A4 AC 1C 8D 19 F7 A1 EF 6F ED F8 E4 EF
 AF 58 2B 13 2D 97 3D 8C 81 5E D8 CE A7 33 79 5C
 8B 7C 02 C5 67 9F 0C DC FB 35 BE 6B 11 DB 56 FD
 8C 10 BB FC 68 4F D2 9C 0D 98 5E 28 17 DA 59 68
 03 04 F4 17 B2 28 70 47 9B 0B 02 20 FB A6 89 EB
 D7 D4 66 34 09 8F 21 16 15 17 2C A2 E4 33 28 5E
 B1 61 60 BD 46 5F E7 CC BB E4 B6 88 14 4A D5 FB
 FD 57 C6 9E 15 54 38 5C 7B 6F A4 5E DA D2 C5 83
 5B CB D1 BD AF 89 F2 61 64 BD 15 D4 BB FF 1B 9C
 AD 40 EC DB D4 08 A5 91 D1 C0 21 03 4A A5 5B D9
 DA A1 8B 03 70 64 43 91 5D 03 7F 1F 87 2B 0A BF
 44 99 32 F3 7F 36 BA AF BB 41 A8 97 E1 E8 25 09
 88 1D 99 A0 C6 C8 69 57 28 EC BA 93 27 34 4A 47
 29 66 67 3B 6A FE EE C1 B0 17 A6 72 AA 3D 68 C3
 13 87 A4 9E AA 55 6F 11 8A 7A 45 62 7E 94 4F E2
 36 6E 86 0D FA 93 59 68 7B 71 78 22 11 64 90 63
 97 87 7D 76 79 7E A6 F0 BE 89 D3 7B C7 47 15 7C
 39 FB EA 22 0A 16 D4 67 41 10 25 FC DA 1D EF 6B
 B0 A8 72 4E DD A4 0D 23 73 5A D0 53 26 77 A7 42
 59 5A 65 EF 8C 54 EC DA 22 BC 27 14 EA 29 1D B9
 01 B6 63 30 61 EA 99 E6 78 35 C8 5F 2E 7F B8 32
 65 8E 4D 0F 56 1F C1 94 51 7C 33 DF 7B FB B8 6A
 C9 4A BB A3 54 AE 08 CB C1 93 A3 D0 C7 1D 51 83
 89 8B F1 9B 64 15 86 0D 9A 3B 5D E7 3D 47 CB 50
 8A 3C D0 53 00 5F 2D 9B 87 A9 96 B8 3C 2B C8 7A
 C7 6D 05 64 51 38 55 10 ED 39 13 64 17 73 1B 81
 16 97 F4 D3 3C A4 04 81 15 14 FF C4 D2 E9 FD 1A
 ED B9 13 7F 8F 2E C5 F7 FB 47 8C 78 93 CC F5 99
 47 EC A0 2A D8 7C 0F 1A A1 D9 3C 87 19 FE AC 16
 B9 89 BE 45 80 8F 2E 4C B6 0D 00 5D 35 37 58 37
 1B 19 02 4D C6 BB 4A 01 6E 1C 58 50 84 E3 93 8D
 92 1A 0B D5 16 8F BF C8 91 EB C9 1F C9 68 34 4B
 BB 9D 57 E7 7A 84 5D 1C 19 CB 04 A8 31 9B F4 CC
 AD 3A B3 15 BA 45 FD 93 72 5D 80 1B D9 AE 10 CE
 21 BA CC F2 17 A0 3C 55 CF 1C 62 46 2D 5C BE 8F
 E3 D9 12 9F AA DD F9 B7 EB E6 E2 6E C9 C1 7C E6
 42 B0 C2 3E D7 FF EB 09 C4 53 60 75 73 BD 13 CB
 C5 9B 47 96 02 C5 12 12 B2 A3 8E F1 B7 F0 B2 30
 12 BA 32 A1 43 60 8A 10 F5 9D 1E 7F 8C 21 78 24
 F1 36 5B DB A0 83 1E 55 C8 FA D1 B1 8E B4 B5 90
 B8 03 A6 A1 C5 E9 92 3F E6 10 C7 99 6D B8 16 16
 C4 C9 98 DF 34 1E A0 8A 06 6B 90 91 35 6F 5F E6
 40 A0 5D 88 21 E3 B6 EA A6 62 EF B1 9E 39 9D A1
 23 06 A6 42 23 04 D3 02 29 07 42 E3 5B 20 7A 9F
 BA AF 2E C1 4A 24 89 E9 15 3A 2D F6 51 8D DC 3F
 4E B4 F5 BC 3B 4F 43 E7 BC BD 32 65 89 13 8A C5
 96 3D 2A A5 33 82 51 FD 34 17 EE 75 37 3A E6 AF
 87 CD 1D 7D 05 10 A8 1A 78 5A D3 B4 3A 76 51 BE
 92 D7 89 D3 7F 6A 10 1E 18 57 32 5F D7 1A 41 C8
 74 79 0E D8 8A E3 B6 6B 16 C3 08 1D 53 90 F1 66
 92 23 D6 8A 20 21 12 5F D6 CA 6C D3 DE EA 7B 34
 0E 9D 79 41 8A 80 9F 13 B1 CC C2 6D 70 AE 4A 1E
 23 2C 6D 94 17 55 D3 B7 5E D2 81 36 89 A4 5F 29
 DB 57 D2 D3 4F 0A D1 1F 23 5D 62 60 EC 52 08 D2
 5B 57 F9 E5 7A D7 95 7C 42 73 B7 B8 F3 53 2E 23
 22 9B AC FF A7 F5 8D 3C 2C 91 F8 74 49 54 6D 6B
 9C 69 1A 93 45 19 01 43 02 09 07 04 24 51 51 67
 75 1B 3D 29 DB A0 BC D4 4F 72 5C 71 C4 EB CE C7
 44 82 8F 36 A4 AA 29 85 88 CD 9F 09 59 B6 0A AA
 D6 66 8D 2E DD 7E 53 A5 5F 6A 4B 6C 01 56 E6 DB
 52 6A D6 F6 6B B0 34 FF A2 AD 61 0F E0 84 EF 32
 A5 35 14 69 6D 62 FC E8 4A 15 B2 E2 F6 05 BC F8
 76 4E 5A CC 0B 45 9A 9A EB DB DE 53 69 16 E1 79
 50 75 F8 E3 38 AD 51 C2 21 E2 25 20 4C F9 0D 73
 9F EA DE A8 31 95 84 A4 4B E6 AE 29 7C 70 10 42
 ED CE 62 A3 86 FD 38 37 C2 00 27 77 E1 BF E2 47
 0C 57 D9 55 97 BC A6 50 67 58 4A 20 50 30 8C 6F
 9C 77 C6 86 0D A2 57 E5 28 20 2C 11 74 3E 7D F7
 84 9C EA E5 12 C1 E5 D0 7E 79 C8 BB 87 C2 B3 1D
 07 DB BB 0A 2C FF 02 A8 02 19 84 AF 1F 10 C0 7F
 72 14 AC 7A 70 A6 85 55 97 BF 7E FF 11 D1 09 DD
 41 D1 04 E2 2C AE 57 1A B9 FF AA B0 91 35 91 81
 4E 7E A2 ED 75 36 8A 2D 65 1B 19 B1 A6 17 43 6A
 93 02 5E 6E 97 76 B3 24 B7 67 31 8A 28 56 63 64
 8B 08 A3 FA F1 B9 3A 4C B4 B6 97 82 55 4E C3 29
 FA FB B8 B4 EC 66 83 F2 33 41 48 26 5B CB FE 45
 ED E9 13 AA E0 71 6D 48 24 15 38 A3 FF 80 73 1B
 79 F0 5F 72 37 61 95 45 CC B2 C7 AF E9 5B E4 7F
 24 FD 87 31 B6 31 ED DF 2B A2 FC 03 C1 9C 4A DB
 28 23 D5 D9 2A 20 A0 57 05 8F 18 1C 6E 90 2F 9F
 10 4C 00 6F 42 21 70 1F 69 3D 23 82 65 B0 1E 24
 A8 A6 BB A7 35 28 E2 8A 25 CA 11 F7 1F D6 B2 E0
 4C A8 CC A1 CD FD 88 55 DE 1E 25 0B C6 E2 13 F0
 D7 85 E7 46 D0 44 E4 9B 75 8E F5 9B 46 14 67 33
 CF BA 93 A6 34 59 F2 C5 E5 79 FC F7 09 C6 54 EC
 AE B3 AA 8B 81 E8 AC 3C 77 D3 CD DB 39 5D 7D E9
 3F A2 79 64 06 D6 19 1C 11 4F F1 94 45 FF 14 68
 2F AD C5 4F 53 3E B4 B0 16 39 B1 A9 C3 1A AE 3B
 CB 14 69 AE 38 99 B5 F8 4A DA DD DC 1E D9 DB E3
 6D DE 34 BF C4 33 DC 1A 79 1D BE 65 1D 7A E5 46
 63 03 4B CE 5C 58 FE 10 08 F4 B4 BC 0B 5E 2B 43
 3A 03 C8 9B BF 8F 60 42 D0 2A 25 5E 5D 95 A4 8A
 E8 07 DF 3A F0 40 E6 DA AD 4C D8 3B FF E3 D9 6F
 35 D4 8F 68 BE C4 89 6A 7B 17 F5 B4 B2 48 50 95
 EF 36 93 8F F7 29 16 B5 0F B9 A2 77 15 F3 1B A3
 79 57 65 07 DC 57 EE A5 18 B5 86 07 C8 61 49 C6
 64 19 E1 42 FB 4A 17 82 51 A6 45 57 84 49 EE B7
 74 13 35 51 BD 68 F8 DE 4D 3E EB 0A C4 06 9E C4
 82 6B 39 E3 7C 77 F6 A4 B8 E1 09 15 4B 77 A5 97
 67 86 E5 13 52 5D 02 CC A0 4B E1 12 75 8B 1D 55
 91 3B 1E 96 EA 1A 89 F4 43 23 3A 0D 69 E3 DA 4C
 14 21 52 08 3E F8 2E 18 B8 A8 3A AA 13 79 0C 52
 DA 95 5C 2A 23 6E 1F 60 AA 79 69 6D EB 24 61 79
 2D A3 FD 3C A3 28 37 6A 66 DF 95 73 1F 76 80 35
 B8 13 96 34 51 70 85 0B 64 6B 61 C2 9D 6E 3D 64
 1D 07 EA BA 46 67 80 79 D8 81 FD BA A1 9F 8C B6
 E7 F7 BA 85 3D F4 21 E2 99 F1 FC 39 E9 B4 FD 54
 52 E2 10 E7 88 A3 23 59 60 A1 A2 3A 6C 15 71 8E
 D7 AF F4 AA 8B 64 01 F4 E9 46 3C B3 3F 09 75 8E
 5D AA 11 F6 C7 8C 7C D0 28 B1 96 C0 68 A0 1E 79
 B4 C4 A3 62 A9 55 42 FF 9D 5A 31 1C 0D 1D 59 E3
 26 08 15 11 E1 7A 34 74 22 2C 18 44 6B A9 ED CB
 4B A9 F4 5E B0 78 17 18 2A A2 FD E6 79 85 75 8B
 00 C9 C1 6F 2C 1F 9B 4A C4 30 64 98 D3 90 B7 1F
 A9 C7 AD F1 9E 03 5B 1F 38 D2 BA 3D 02 CE 8A FA
 6E 49 0E BF BB 24 25 A7 1B C0 D1 34 4C 71 1F 28
 1B 4E 5B 69 CF 0B D3 8B 26 E6 04 2F 9C A9 A5 FE
 78 EC 34 AA 51 1B 2A C5 BE D1 A6 82 4E B7 7D F8
 5E 9E E5 B6 C9 3A 57 D4 30 EB 7C D2 1F 30 A6 D5
 D3 E6 AB 8F 91 66 70 55 F4 54 5C 31 F5 05 3D E3
 90 0B 5D 93 00 1E 40 55 35 CE B8 59 27 08 95 4A
 53 5F 51 9C 83 FF 76 67 D3 21 8B C6 81 E1 85 38
 B2 02 79 E9 CA 9B AD 8C 58 D7 F8 BA AD D6 EA 7D
 75 CF 8A 68 C2 C7 88 D2 5E 46 5D AC A5 B9 97 79
 31 29 55 50 6D 4C CD 22 EC 0F DF 9C 19 64 CE 54
 4C 39 F3 83 46 95 6F 07 BA 7A E7 77 2B 99 85 52
 E1 88 F3 6A B9 9D FA 10 95 22 40 07 BC 09 BB 1C
 B8 0C F1 65 5A F0 C3 1A 9A BC 61 8D 11 40 9F FC
 EA 4B 29 45 C0 34 E0 B4 56 00 FF 24 F7 40 EE 22
 21 8D 0E A0 68 5A 48 C1 67 7A A9 E7 59 F8 37 F9
 49 24 DE 64 A4 EB 22 51 7C 37 91 8C 87 51 6A B6
 F7 3D 42 89 43 9D 32 45 18 53 29 E0 33 FC 23 E0
 CD 39 5E AA 09 63 42 42 CD F8 72 3E AF 27 90 EE
 B2 6B 7B 51 F3 71 2B CF D5 2E 4A A6 9A 74 43 0C
 E3 FC 8F 67 86 EB CB 5F 88 3B 84 B8 4B FB 08 C6
 68 20 2D 1C 4A 2F A0 FE 57 8C 7E B6 6A 78 DD D1
 5C 58 E9 51 23 A0 58 49 24 F1 20 05 CC E4 6E 90
 33 C4 62 1B B0 1C 13 B0 DE F4 8F 15 6D 97 72 F6
 6E 71 1C 9F 64 D3 32 3C 2F 89 0F 53 CE 8C 92 CD
 D6 E2 2A 44 42 C1 0F 8F 4E 4E 75 7C BB 8C 97 C4
 32 A8 C3 63 CA CD 2B 85 29 E0 10 72 87 9F 1B AC
 83 C4 2C 67 EC 51 85 85 C5 07 85 E2 87 4F 71 E5
 7F 56 F4 71 78 34 B7 09 FA 56 58 5D 98 21 09 DD
 20 EF 35 8E 4E 72 21 A8 FA C0 CB 2B 0F 2A E5 B6
 27 84 9D C7 D9 49 C1 94 F2 97 29 FD 66 7D 68 A8
 FC A8 8E 7A 79 7F DE 8E 01 EE FC A8 57 0D A2 20
 29 47 4E F4 D0 D0 E9 DC 47 C8 38 C9 48 BF EC 4E
 46 3F C4 BE F1 8F E8 FF 35 12 B0 46 ED 01 01 9A
 F0 08 09 71 7A 9A F3 69 C8 40 E6 2B 39 27 6F A4
 04 24 9E 75 AE 52 4F 6F 14 F5 AD 44 9A DE D4 25
 D5 DC 2C FD D8 4D B8 97 86 CC F2 F9 A9 30 F1 28
 F7 13 AF F4 17 FB 31 37 2B 4A 3A 2F FA FD 7B 3D
 1A 1D 09 D2 11 FC B3 E2 E7 BA 05 BB FB A2 21 D4
 89 0C CC 66 95 97 6C D5 9C 53 A7 B5 F1 EB 15 D8
 C7 81 55 47 00 59 03 39 2B 8A 61 79 B8 A1 6A F7
 1D E5 0C 86 84 E5 38 BE 43 FA A1 A8 76 41 91 D0
 FC 18 2C D2 A6 3B EE 94 1C 1E F2 B4 2A EC B5 C2
 6E 27 93 37 8D 2C B5 B5 1B 33 DC A3 FD 73 90 B3
 D1 89 45 E2 0D 2B 83 83 7D 4B E7 9A B3 F2 56 E6
 F7 B7 87 07 6B AF 15 7A A0 D2 E9 50 6D 35 A6 AA
 FA 3A D6 6C ED 28 2F F4 53 B5 11 94 DE 8C B1 B2
 BC 66 00 09 30 E1 D3 89 83 4C B4 46 D4 75 44 87
 2A 78 C0 3A 07 ED C0 CD 8A 38 08 BD 94 FB 02 CA
 9C EA 0C 4C 91 DD 2C CC 46 90 F5 30 1F CE D1 5D
 A6 95 ED 67 35 12 AC 25 E5 D4 7C E8 B3 04 2A 07
 2D 29 43 5F ED 60 1B EF 79 8B C0 8D 99 19 0C 7B
 9F 84 87 17 CF 0E 02 9E CF 0D ED 11 09 69 8C 57
 DB EC AD F0 84 CF B7 5C F4 6F 69 0C F7 0B 33 6B
 8B 24 12 6C 94 F4 BE 80 8C 0A FE B4 63 08 AB 11
 81 FF 70 C5 3A D6 E7 92 41 7E DD BA 86 DC 95 0D
 C5 97 07 94 51 BB 0D 49 B2 C6 FE 7F 60 FE 55 AB
 3C BA 09 1F F4 4E F0 25 DC 10 98 B7 4D 69 A1 40
 97 DC 8A AE 00 F0 F2 4B 30 20 8C A3 32 2A 54 34
 75 25 59 EC C2 62 F7 06 3E 36 48 A6 80 E5 A0 43
 88 69 E5 61 B9 57 9A 7B FB 8B DF E1 1C 64 D1 C5
 AC 64 B5 0A 62 17 74 05 82 5B 98 06 95 A9 00 42
 3C 00 B4 72 EA 24 EC 50 02 A9 33 D0 87 30 70 09
 63 06 A4 54 54 08 67 F6 33 35 13 34 62 4E 8A 5F
 60 59 FF 40 AE B0 95 78 6F 45 49 F7 6E 9F 41 EF
 25 C1 80 FA 09 9C E5 DE 34 11 80 53 D4 2D 74 A5
 D4 95 2B 8C CF 1A EA 42 BA A1 55 64 01 01 72 F2
 21 D5 27 5A 9F 7E 12 99 B6 18 AE 2B F7 BB 18 98
 AA 11 3B 7F F7 05 38 DA E2 53 AD 2E A5 D8 8C F3
 CF C1 84 E0 60 36 91 89 2F 2B F6 6B 13 5A FF 5B
 58 99 31 3F 76 0B A3 60 EC 29 F6 2A E8 EE 7B 2B
 56 85 5A BD D6 4A DA 39 AC 77 C9 BB 3A BF 78 9F
 48 29 EA BF 5B 79 10 7E E5 26 62 FD 63 0B 85 E8
 63 2E 41 AD 6F 49 20 D0 BB B7 02 08 A7 9E F2 D3
 8B DE 67 23 33 39 A0 8D 85 03 0B 69 0A EE 4A 59
 9D A6 B3 BD 59 66 28 25 C1 97 72 53 3F DF 4A 82
 C3 C7 6A 2F B5 A2 A0 4C 7B B5 29 3E 45 6E 34 1D
 02 C6 8D 2A 87 7C 2F 3F 2F 3C 25 B2 DE AA E7 C6
 5C 9C B3 1B 8A 64 9C 09 30 84 7A 6C 21 AD 23 44
 59 8B E2 E8 C8 09 49 DF 97 51 F6 CE 3F EE EE 0B
 35 E8 AA 6A 93 D1 07 B6 3E E7 46 94 49 22 1F 9C
 CB 93 28 87 0A 04 1E 17 97 32 F6 C7 F3 21 5A B2
 38 05 16 4A 90 67 59 68 C6 D6 7C E3 DB 0B 45 96
 94 41 4D D5 82 83 52 00 37 92 47 FD 88 AD FB 34
 BC EE C5 1D 94 02 8F BD EE 08 43 C8 6E C9 65 BA
 A7 97 8A C1 1E 90 B9 68 BE 1B 72 2E 2D AB DF A7
 3A 7D 53 A2 07 93 D9 1D 68 59 E4 5B F1 62 AF 91
 F2 7A 12 EA CA 05 17 54 80 29 B3 E0 6D 4B DD 45
 60 8E A5 80 2F AF 61 A8 D0 69 D8 94 4D 05 4D 87
 10 33 A2 E1 A4 48 23 93 13 A4 B5 98 47 6B A6 1E
 01 93 A1 E2 3E 88 57 39 88 59 08 04 94 36 2A 14
 73 35 88 74 A9 79 49 31 D5 3A C2 30 20 3D 00 C5
 36 0E 6B 96 45 33 AB 6A 25 C7 B9 38 EC 71 0A 00
 67 05 69 BC BC 63 EC 87 C6 9A 7B D5 B2 4D B8 2E
 4A 6E 5C EB A3 59 78 94 58 BE 5C EE E2 33 A0 3A
 E5 92 ED 50 E0 50 09 D3 6A 11 86 31 EC 82 27 0B
 E7 DB 7A FE 44 50 34 71 13 4C 39 8E 8F 96 38 55
 0F 7A 89 61 82 AD CD 22 81 AC DD 16 D6 28 A9 7E
 C7 60 2A C3 59 7F 5D 94 5F 20 C4 6D F5 F8 FA 46
 B8 26 D5 B2 7E 92 62 82 8D B1 40 BB AE CB 44 1A
 52 34 1D 25 91 3D 9F 56 43 8A E5 45 FD E3 77 74
 5F 16 33 24 23 F7 61 F3 69 64 11 8C 27 A7 99 16
 2C 88 F1 6F 04 FA 3C 55 CA E9 20 7D CF F8 09 CD
 80 3A 33 5D 8C B5 B2 95 A8 C7 AE 0D 24 74 13 AF
 A6 C6 E8 19 C7 98 98 C9 CB 26 E2 90 5F 98 20 BC
 92 BE CC E9 5D FC E0 7B CB F7 59 FB 65 7D 42 A3
 CD A3 F7 CC C4 1E C5 2B 84 A6 E7 A4 A6 73 58 FE
 9B A7 5E F4 41 3B C5 AF 6B 43 54 99 32 F1 81 27
 C3 B1 7E BF 24 BC 5B 6C A2 62 3A D2 54 66 29 75
 4C 63 0B 2E EF 2E 70 F7 25 CC 88 13 7A 43 09 9B
 80 58 E2 E4 28 71 3F FA 1B EB 9D 6C 85 88 CD DB
 64 68 D5 8B 8E C6 B0 27 93 4A 4E E0 85 E6 B8 AB
 FD 59 26 AE 15 3B C2 95 30 F6 93 D5 60 FE 98 C9
 A2 90 82 31 C6 41 2B 69 EE F1 1C 02 C3 C2 D1 05
 1A 1E A5 74 34 E9 FE 6C AC E1 A1 DB 06 66 07 51
 06 C3 E8 71 63 EF 46 56 DF 82 EF 19 44 E3 AB 0A
 0D 59 71 5F 42 06 0B 04 E5 9E D3 25 59 EA 88 DD
 5B 72 AD CF 6A A0 9B AB 01 B5 16 1D 86 54 9E C1
 77 2E 71 87 52 A0 EA 46 EE 4D EA 3A A6 C0 22 CA
 16 D0 29 72 C4 D7 67 51 21 13 39 C5 A7 95 28 5C
 86 8C 0E 93 A3 EF 93 B4 C0 D5 85 1E 41 C2 A8 35
 D0 B6 26 33 29 C1 AE 42 D3 C9 E7 B9 8A C4 25 58
 D4 1C C8 7B B9 EF 64 BC 1F D1 DB 49 53 2C 95 B6
 46 3E 31 DB E4 F4 86 FD B9 9C DD 6B 2C 5E E4 E6
 79 32 EC C3 12 E8 ED 8C 8C 2F D3 92 76 66 C3 F0
 FA 2F 53 F3 A0 EE 93 0B 82 05 01 CF 0A 3F 67 CA
 D6 02 F8 4F D5 E9 C4 AC BD 69 74 B9 B2 58 43 2E
 7F 58 41 A9 CF 7F D5 AD A6 33 82 D6 B5 DD 66 16
 6E D1 49 5F 1F BA A3 BF 72 5B 0F CC EA D5 37 56
 C3 9A 2F 0A 0E CE 02 B7 A4 4B 05 C6 E3 42 C3 D4
 44 34 A0 21 D4 5F 3E 21 7E 02 31 BA 38 EC 66 09
 2F F0 99 A1 D6 6E 4F 25 8D 4D 3D 01 63 A9 4B C3
 5B 9F 72 C1 77 9C AA E4 49 87 E6 63 28 AD 2C 52
 6A 06 E2 2E 62 55 6C A7 CE B8 AA 99 FB E7 56 A4
 D5 31 23 80 BC 28 7A EE 6F 19 FD 6B 87 50 B9 CA
 04 AD F9 E5 E9 D7 1F 7C C5 A9 74 12 01 08 99 20
 B9 FA CC 3E 31 66 25 7F E7 7B 65 B2 3E D2 43 DD
 C6 3D EB FF 3C 46 02 6E B3 95 FD 56 61 14 0B 27
 E6 AE DF 2B 88 0B 76 E1 5B BD C0 B7 96 80 21 DD
 1A 26 29 C5 FB 85 F5 7E 44 80 90 F8 A6 91 C8 AD
 55 7D FB 48 13 65 9C 48 F0 8F 9D 3C E7 CF 9F 2F
 11 1A DA 90 AF 53 32 0A 78 04 40 76 9C EA 67 12
 34 4E 17 A7 7C D0 EB 4F 18 AC 6E 1A D4 FA 92 64
 39 E0 80 6B 9E 16 2D CC 5D 5F 63 54 E0 C6 65 66
 FD 62 A0 B5 CE CE B9 56 59 27 C2 E2 BF 3E 1B 4F
 CB D4 21 BC 83 60 E7 23 C8 16 D6 33 2B 14 7B D2
 FB C5 B1 49 E2 7C 0C 4F FF 0E 5A DF 9D 8D A2 C0
 D6 A2 F8 F4 08 6E E3 CC B7 4E 82 21 6D 84 F5 FA
 D8 8C 1D ED 22 75 71 83 A3 48 90 00 A3 CC 29 FF
 5D 09 9F 63 57 61 79 EC 73 AA C6 15 BE 8C D1 39
 AE 7F 4E B2 79 93 D4 F7 08 F4 09 F3 84 3F 1F 81
 23 C6 9A DE D1 AE 40 0C 6C CC 8D 90 99 A0 F9 16
 4E 50 EE 49 50 AB 2A 58 CD 19 2E 3E DA 69 8F 20
 B0 15 FD 32 67 6D 36 5D 07 FC F4 84 76 E7 0F E5
 AD E4 59 82 08 38 6A 1C 88 EE B6 0F EE 3A 81 2E
 AB E9 7C E3 42 20 A1 8B 52 29 7E 2E 8B F1 A0 FA
 4D FB E1 47 57 86 1B FB 22 A5 A0 07 C7 8B B2 C1
 E1 66 26 52 7A CF 92 52 C3 C7 C5 99 7A 5B 0D 24
 C5 7E 28 FA 33 76 FA E7 5C 09 B9 5B 72 4F E7 83
 71 EC 52 04 D3 F6 23 2C D0 3C E2 4F 4D D7 93 C8
 67 13 8C 99 3D EB 75 98 CE CD B4 1F 6F 7A BC DF
 79 35 20 42 E3 80 B4 1C 6A EA 2A 99 D8 EE A7 04
 52 19 27 C4 20 B5 C6 E8 ED 06 9F 40 17 F8 90 2F
 9F 0D D0 25 55 FE 1C 62 4E 6C 0C C6 38 68 29 C1
 E6 F0 E1 CD 64 2E 45 8C A2 A6 4E 07 96 7C 34 DF
 64 4A D6 08 EC B2 AB 62 02 7C 19 E8 BC 7B 64 A6
 84 2D 74 C3 A6 0F DB 6A 7F 75 FB 77 EF 0B DD C2
 68 CD A9 47 00 94 C3 EC BB EB A5 1E 9C 55 7C 38
 F0 24 A4 24 79 82 FB 34 59 BF 22 5C 61 7C FC 5F
 D9 0C 0A 64 2F 3C FC 80 1D 88 D6 21 98 DE 4E 58
 95 6C 7E FA 3E 01 13 29 C0 55 CB 48 D1 D1 4C 26
 0A 1A D5 72 17 66 89 61 BC 5B A7 1A 24 C6 AC 7F
 7D F6 F1 97 6F 9F AF BE 7A BD 6D 39 F9 20 60 92
 28 E6 13 71 8B 7E CD 05 08 20 39 9C 76 B5 B3 75
 62 61 A2 97 47 F7 86 1A C1 D5 B7 84 56 54 DE C2
 F3 92 53 20 C6 86 2B 49 06 AF 97 A5 0D C5 5A FF
 0A F3 6D 6B 67 C3 3A 5A C5 5B C9 EE 78 65 22 01
 B1 21 4F 44 D2 DA 05 64 6F 5B E2 95 B3 0B A7 34
 30 54 E2 FB 01 D4 86 A3 3A C6 0F DF 8B 79 47 2A
 31 E9 88 D5 F9 CB CC 74 21 6A 5B B5 96 1D 89 41
 F3 CB 29 12 0E FC 05 A0 94 A8 B2 4A 96 AF 9F 51
 F6 E4 C9 E5 1F 60 9C A6 F9 D3 7E C0 A3 69 CF 38
 99 D6 C1 3B B6 36 64 F6 0C B4 CE 5D 50 EE 9D 7A
 CA 21 51 3D 8D A7 10 67 44 64 AA 83 98 82 4C FF
 64 C3 3C 6C 07 6D 8C 27 DB AC 8B A0 2E 9C 3B 7F
 1D 5D 19 BE 0B 64 B7 63 58 4C 2D EC BF EA 20 79
 74 34 25 D7 D5 8E A4 31 13 98 47 5E 44 47 8E D2
 B6 4A 6C E4 5F D6 F9 B6 06 89 26 10 59 D2 63 11
 4C 5D FC 62 50 63 E3 1A B6 A5 2B CC 7C 5C A1 14
 5F 3F 52 AF BE 2B B3 82 E6 02 1F E2 6A AE F8 C6
 C9 73 0D EE 01 A5 34 01 A9 9D 22 F2 7F AF 04 5B
 06 7A 9F C7 C2 28 FC C3 CA 5E A0 A5 11 45 43 0F
 47 0B 8D 24 07 26 52 56 73 59 06 02 D7 45 15 0F
 27 E0 B5 50 AF 9F 98 E2 72 14 1D F3 2E C6 E6 3E
 9A DE 3E 6F BF 75 1D 0A CC 02 CA B1 A7 88 7B 97
 FF 72 B8 87 8C 25 38 C1 DF F5 A5 AE 87 D9 3B 2D
 F0 81 F6 DD AD 91 66 C7 DB 33 C1 11 77 E5 DA 57
 71 AC C7 AF F4 BE 61 08 FC 64 69 33 CB AB 9F 1D
 C3 35 6F 75 71 00 C6 EE CD 9F 4F 0D 86 57 46 0B
 99 2E 37 9E 04 88 2F 96 3C 9D 03 AE 19 C6 58 7C
 84 C5 32 D6 ED 8A D8 EE 76 74 5E 0F 41 F8 8E 96
 32 47 9D E1 3E 5D 6D B0 05 FD 1B 5A F6 F7 21 84
 75 27 BB DA 13 87 C2 A5 63 C7 E3 AF 24 3A 07 A0
 23 EA A7 4F C4 09 AB 01 45 B4 17 7A 82 A2 02 13
 77 78 12 73 C0 7B 30 0B AD 55 F8 6D 0F A2 01 A0
 BE 56 AB 1D 60 F0 38 3B EC 77 62 C4 7E BE 67 3E
 16 6B 16 9B 45 67 EB A3 F3 8C 03 A4 BA BF FA 32
 F5 47 88 14 32 42 B8 B6 91 7F 3E EB 5E 66 34 BE
 69 D7 85 35 49 E3 B3 E6 D9 9E A8 99 F3 C6 07 D5
 EA F2 B0 60 22 4A E0 B9 5B E6 37 25 69 CD A7 87
 D1 6D A6 82 2F 16 1C 76 13 D6 39 64 F4 A9 54 95
 0A 52 0B 3A E8 52 9B A3 9B 29 ED 9F 60 75 8C 3D
 75 5A 0F 4C 80 85 D0 F7 1E AB B7 07 A5 69 C9 79
 B4 28 49 31 55 43 A2 A3 EE 09 2B B6 25 B1 51 27
 F5 3E A5 BF 6C 47 E8 73 3D 03 BE C6 0A 41 86 39
 B7 A2 17 35 85 1C 11 65 50 F4 81 BC 00 2F 45 2C
 D2 FA AC A7 26 40 0A 62 17 3F 83 1E 19 7B BA BB
 33 4E CC 30 A8 C0 AA 45 70 A0 C9 24 55 6D 16 72
 D2 0F 02 60 AF FE 8C A9 0C F3 4F 8C 4E EF 66 B7
 99 64 94 95 8C 16 DE D4 96 10 74 71 7E 79 EE C3
 35 CB 94 BB 1E 8D 58 A4 D4 97 05 F5 4E 43 62 B8
 38 E9 8B CB C8 97 69 C5 0B F8 7D 2B E7 2C 19 4B
[...]
 1E 87 CE 37 E8 89 12 66 73 A7 10 47 92 51 D6 0A
 5A 99 CB 39 B6 62 26 7C C2 F5 24 B1 0D E4 10 25
 83 A1 25 2A 19 DC AD D5 28 39 99 18 7A 68 CA B8
 50 4F 93 D7 F6 D7 2A 1E 59 80 12 37 B8 8C 50 39
 50 09 96 38 EC 8A 84 60 4A 0D 0C D4 50 85 C1 0F
 A5 E7 C0 16 77 C8 D3 E4 C6 6B BD A6 10 B6 5A 2F
 D4 64 D8 DF 15 3A E7 5F 75 03 DE 43 9F 9C DB D3
 97 3C A5 52 E4 92 FC 24 9C C2 77 09 6F 61 7B 1E
 6C CA 3C 78 2E 7D F1 B3 9C FD 49 41 99 2B 07 E7
 81 A6 95 C4 CB 2A 60 C9 88 A1 DB 3A 90 F7 1F 78
 84 34 35 46 7E FE 02 91 57 A7 AB 8A CC 96 3D AA
 F5 28 95 72 16 00 34 1E 10 77 4A AB 75 F7 AF 0A
 3C 41 B4 FA BF EB FB 24 34 94 97 B5 71 76 BF CD
 80 60 71 B8 99 48 20 A0 F6 DF B9 B2 BC 38 E3 6F
 1F 0C 1A 54 FE 1C D4 36 6E 4D 7C 90 5E 52 73 F1
 9E AA 70 42 80 D3 E7 DF 2A B4 4B 5E AE 5D CE E4
 3A D2 70 52 16 98 B6 8D 0B 48 F4 8B 0D 44 C3 95
 70 F2 12 AA 3E 79 AA DB 7D D8 71 65 76 C9 36 8B
 AD F6 7F 88 68 35 9A E5 B8 62 6C B0 AF 35 78 6C
 2A EB D8 BC 66 50 CD 50 7B 0C 67 F5 BC 4E C2 77
 8E F6 6D 2A 7C E8 AB FA 91 EA 65 CC 20 C1 D0 4F
 1C 0C E9 71 17 73 8D 20 A9 C4 70 1A 0F 8F B1 8A
 9C 3E E1 D2 C7 BA 20 25 9F 0E 8D 49 76 52 65 3D
 20 B8 CA AD 25 87 7E 17 4E 84 39 78 7A 92 9E 7B
 6B 75 42 32 7C C9 77 6A AE 47 34 16 0C AE 4F 00
 A0 A7 42 8F 4B 3E 8C 1C DE 12 80 9D 04 3A 60 30
 06 58 88 82 54 29 A4 D6 8E F2 90 7F 92 4A BA 1B
 2F B9 4F 2F CE 3F BA D7 5F B9 70 0B EE 37 5E FF
 D7 CC F0 16 EB 1A 0C AF 83 79 0F 97 53 31 31 40
 BA 8B 3C B3 4A 16 5C 4D CC 3B DF 90 F8 29 95 97
 27 85 B4 D5 E9 20 38 BB 39 39 E1 1B 84 73 1B 45
 6A C1 1C 0A F5 EC 92 A6 A5 40 BA 70 3D FC CF 16
 03 15 2B 53 8B 45 CC 5C A9 E9 0C 53 5C E7 08 C1
 6F 19 3D 92 01 4E D8 DF 13 B0 0A 67 97 64 5D 7B
 AB 5F 52 68 34 99 62 69 CA 4B 1C 9D BD FC FB E4
 9E DF 0E E3 5B B8 C3 DC 93 37 0E EA FD 7E 56 AA
 75 B0 0E 9A 6F 1B 2B A7 75 39 84 90 68 39 77 96
 F9 27 8F 7A B7 02 A9 C9 7F 97 AF D5 A9 66 60 CA
 1B 9C 1C 78 61 7C F7 7C 10 EC 98 FC 6C 9D 02 0B
 6B D4 89 FD 8D 30 DA 3A 06 1D E1 F9 B0 9B 97 01
 E0 C0 C1 3A 7A DA AA D3 A4 2F 1B AC 7B B5 0E 87
 C6 34 DF 13 D3 46 A8 C7 B4 17 D9 E7 D8 7F 4A A2
 07 41 11 82 98 32 90 6E AF 1F CE FD 90 1D 9F BC
 DD DD 71 23 B2 B7 84 F4 E4 BB B1 85 39 9B C4 9C
 5D D1 5A 47 01 04 00 AE E8 84 2B EE 0E F3 69 C6
 5D 86 F3 2D E3 0D 7F C2 E4 90 38 0A B2 A8 34 8D
 3F 1A B1 DD CC 58 D6 8C 32 CE 18 95 97 E7 0F 3A
 1E 48 87 CE C4 97 D7 C5 C9 65 EE 8C 46 54 5C E4
 A5 81 77 C4 4A EB 88 98 63 13 32 3C F6 AF 99 67
 E3 78 C2 43 6B 97 89 C2 35 EC CB D9 52 4F F6 6B
 CB 0E 0E E1 3B AD DF 2A BB B5 48 83 8E E6 24 69
 5C CA 72 2F 38 09 22 2D F4 F3 66 C4 85 89 D9 EC
 E9 4F 18 46 8B A1 BD 93 6D 87 A7 22 B8 99 CB D2
 F7 73 E1 22 A6 09 2F 96 DA 90 D4 39 02 57 92 AB
 B1 12 E2 C8 FC 05 DB 0C BC 36 D5 49 FB CF 71 73
 2A 43 57 1C 59 A5 DD 15 0B 35 97 36 0F 3A 02 88
 FB F2 F3 C5 6B C6 8A 9A 41 F0 93 95 36 DD 0A 57
 78 75 9A 56 08 F0 A5 89 0C B1 6D 3D FB 19 B8 79
 9B 67 03 BE 11 4B 22 C7 01 73 A6 17 30 1F 72 50
 97 80 AF 30 1C A6 A3 45 66 46 53 E3 70 2F 34 3C
 F7 99 5A 28 FA 61 97 8F 4B 89 92 80 E8 7A 0A 66
 3A BE 08 7C 2B 85 ED FF 6C CB A9 B8 3B EA CE 46
 B5 08 88 2D 17 A5 99 48 26 D3 D5 97 29 2E 22 30
 D5 89 CC 61 D3 4E 08 C9 BD 35 BF 69 CD B8 26 0F
 5B CE 23 72 2B D1 34 31 0B 55 85 F3 DA 8E 02 56
 4F 1D A5 7D 1B 9E 64 6F 90 1A 00 CA 0F 67 EC 15
 12 CE C2 59 F1 98 D2 8A 24 18 5D D0 DA B0 5C B2
 98 39 68 1D A7 B6 12 BE B1 09 DC D4 7B E8 83 D0
 A6 51 45 0E 91 94 40 02 4E 72 4E 45 81 47 5C 07
 FB C6 B5 A6 79 7D E7 3C 7C 79 EA C2 4A 94 E0 3D
 3B 8E CF B8 65 1C ED C0 EB F3 DB 22 07 EB D3 FE
 98 81 D0 A7 4D F3 C7 27 86 1A 16 30 AC EB 07 80
 04 51 BB 4F E1 96 8A D7 CA 67 09 09 91 04 CD 94
 D6 AB BA 04 63 AD 0B F9 89 19 92 8F D9 9C FA 6A
 12 F5 7A DF CB EF C4 79 D3 86 00 66 88 B1 4E 91
 DF 8C 01 92 51 6F 9F 5E 09 73 BD 23 A3 38 96 55
 8F BB AF 4A D5 4B E0 BC D9 4C AD A9 37 9F 4D 57
 61 5F 92 ED 9D A1 61 D9 8E 4B E1 4E 10 0F 4C B4
 A1 86 B5 C1 90 6E FF EC FA 5D 46 C1 77 16 80 F2
 FC 04 D1 01 D1 A4 FC B2 26 A2 E1 AB EE EC 4C EC
 58 5E 54 4B 42 73 B8 87 4A 90 37 65 9A 81 B2 9F
 1C 2F 60 BA 11 B8 21 19 6F 37 0D E9 63 ED 60 AB
 E9 24 80 AC B2 7F 8B 3D 79 CC A1 45 CB CD E7 89
 FE B2 82 F8 7A 8B 29 B8 7A CD 8E D7 DF 27 25 06
 4B 83 9E 9F 6B 7B 7A D8 07 3B 02 B8 A8 A7 8A AC
 23 16 C4 7F FC EF DB F8 30 BD 76 6C F1 FB 68 19
 F6 44 26 C6 5D 85 A4 4A 2A AA F2 B6 58 5E E6 A8
 A7 73 7A E0 12 C5 FF 75 B8 82 C9 71 AA 56 0C AA
 4B 62 7F 12 F6 DB 9B E2 62 49 77 07 9F 12 0A 3C
 DE 3D 03 75 CA F5 44 DA 9C 73 7F BA 6C BC B1 30
 10 9A B6 7F AC 02 73 7A 6F FB D4 56 AE 8D D7 B9
 18 B1 6B 8E ED 79 E6 79 25 D4 94 00 5E DE 80 40
 A8 9E 40 CC 0D 22 34 F0 85 76 DA 2F 4F 23 14 39
 74 0E B2 5C DE 20 35 22 B1 8D A0 C7 50 79 D9 5E
 A9 A6 61 8F 6B 8A FE 05 BE 9F BC C2 3D 26 4F 19
 C2 D0 64 AF 76 7A BB 05 7D 17 E7 7C A7 4A 9D C0
 8B 59 E1 3C F2 65 E6 6F 47 B6 A4 CB 67 87 1D B0
 6F 14 BE 7C 78 35 E9 5B BA 57 44 08 92 3A 49 B4
 72 62 8F F3 05 18 93 4F C4 0A E3 C7 38 0B 3A 25
 B5 B4 B2 5C E0 6E 92 72 E2 6D 40 3C 58 25 14 03
 68 28 22 CD 04 89 7E 13 A6 41 F6 A0 1B 14 5A D2
 39 13 70 51 36 1C 4E 02 BC 05 44 A0 19 12 E3 80
 40 5C 7E C3 8E E8 32 CE D9 77 24 5E 98 78 C3 C9
 DC 5B 6A 95 78 0D 95 01 81 A5 64 64 86 55 66 F5
 0D FA 61 7F FB 28 37 06 8E BE 70 04 0D 46 6A 05
 25 C6 9A 69 A8 F0 A7 8F 0F 5D 0F 90 22 CA E4 33
 94 3E 43 44 4F 8C 8D D3 16 3E D9 6A F0 76 6F 20
 A3 12 79 AB 5C 38 3F E8 41 C3 34 A5 0B C7 92 42
 FF ED 43 11 EA 80 02 C8 E9 17 C8 80 F9 2A ED E8
 3A 74 46 1E BF E2 C5 32 CA 5E E0 18 D0 2D 6B BC
 8C 01 D0 74 0B 01 F5 E5 B6 DE DB 6C 06 0A C5 AE
 1C F6 DB E0 D7 3F 3A 79 84 38 A0 5F D5 EB 19 02
 F6 CB 99 31 C9 91 4F D8 A4 DD 7B 94 CC 4A 00 DC
 48 D6 8B AE 37 46 3C B4 C0 F7 FD 13 B0 DB 7C 3F
 54 C1 48 61 A1 B8 BB E3 8B 51 6A 57 5C 86 81 09
 F8 F7 8E 6F D7 1C 6A EB 32 76 42 3C 59 7D 93 4B
 BB CD FA 2D 94 A8 98 43 CE 24 04 3F 9F 88 42 78
 E5 67 AE B6 C8 C4 D4 C5 A1 6D 87 E8 2D 46 C7 C3
 17 8E 89 A0 0F F5 C5 5C BE 39 8F 87 8D 82 1E C2
 20 C6 5E D3 A7 9E DC 73 3C F9 C8 CA 99 C1 84 EF
 33 27 B5 BF 7E AE 20 04 7D 58 48 C3 94 35 1F 1C
 33 4B FE 8C 96 54 6A 35 0D 95 28 C4 08 FE FE C0
 D5 A2 BC 65 A5 69 09 CA EE 3C 34 55 22 10 AA 32
 09 D0 E6 D7 B3 BB D4 97 1A 51 59 D6 D1 1C D9 7A
 A2 EA C9 EB 75 3A 36 78 66 F7 8C 9D 6D 8F 4B CB
 01 DD E2 1F 83 90 B3 2B 07 50 FE 0D 52 5D E6 A6
 AF E5 A4 1F 9E 30 88 A8 9F 7F 84 49 1B 15 3D F7
 04 54 98 DA 4A 3A 7E 6D 8D DD 0B E7 17 8B 89 6B
 E4 E8 FD 86 CF 68 A0 02 43 5F 10 38 E6 41 EC DD
 7C D0 75 21 5E 31 85 E7 04 01 A0 EE FA D7 1E 7C
 F4 4D E0 67 1B 7D 90 AC 4D 1D 59 95 54 ED E8 F7
 71 70 1D 17 F9 D5 EB 9F B0 6F E4 6B A0 E7 A1 94
 BC 62 C8 CF 34 05 1F E2 3C D6 AA 54 28 AA A2 0F
 A9 EA AC 67 91 B7 13 C1 62 B6 6A A0 7F DA AF 9C
 D3 2E 2B 70 A8 84 A5 0F 03 E9 F9 9D A2 B8 07 A6
 9B D2 34 C6 66 D2 A0 2F 90 22 16 9A 3D 28 69 EB
 16 AF A3 C6 97 FE 29 63 FE EE FB 22 14 4C 2F 68
 7D 9E 8A 26 89 E8 8B A3 55 84 56 3B 8A 47 2D 4E
 DB 70 14 57 49 E6 67 66 21 32 EA 1F 8B 5D 6B 96
 CB 2A DF EA 85 F2 EC 91 71 B9 28 0B AB 4B A0 18
 76 E4 13 E9 F2 58 31 57 EB F2 F7 9D F2 FE 38 89
 CE EF 34 B1 5B CE E4 F1 A9 E6 CB F9 A3 41 D1 0C
 48 83 45 E4 CA FE 57 D8 AB A7 EE 4B DE A1 1A EE
 25 01 9E 88 EF 91 C2 A0 7B 2A D1 47 3A 0B AB 2A
 48 19 01 B4 DD F1 97 2C 1B C9 45 F4 42 D9 3D 59
 C7 7A 2B B0 DA 6B B9 49 A9 20 57 0A 63 51 8E A6
 30 BE 6E 4A 68 6E 42 E6 E4 AF 71 FA 6C 99 79 04
 76 B5 8C 81 24 3F A4 7E 60 81 8C 33 59 BA 0B 5C
 6D 3C 6E B1 14 9C E7 99 45 76 F4 EF 57 0D AD 50
 5C FC 64 61 C6 6B 01 F6 80 94 C0 CE 57 6B 23 63
 4F 3F D8 8E D7 A8 74 DE 5B 9A EA 17 8B A9 B7 97
 A2 3A 1A 41 7F A7 A0 85 C7 F7 A5 15 1F C6 71 BB
 29 08 E7 94 C2 E5 8B 2A 68 E2 B9 F4 F8 34 A7 A6
 CA 7F 1D 6C 96 46 12 3F EE 5A 98 58 D3 CC 52 4D
 4D 3F 30 A4 C7 1F 41 5E 6E 78 0C 8A 60 CB C6 B2
 52 24 0C 45 7D EA A9 4A 65 94 CD BD 2D C7 8A A3
 8B 40 F5 50 E9 5B 3E FD 54 7E 69 2C 35 FE 0B DF
 08 6D 24 C1 14 EF 28 93 C5 BD 07 98 4B 0F C0 F1
 69 0A 11 BB DD 7C E7 A4 A6 EB 8D 7A 12 60 4D 4D
 95 DB 7D 31 25 AB A0 46 5D 47 34 2A 0C 0E A3 55
 FC 48 5A 76 09 A1 AF 60 A1 A9 4E D1 7E C5 3E C2
 79 22 4D 20 E9 9C 2B D6 46 71 26 51 18 98 AD 89
 DA CA 99 B0 8F 49 DA 4D 82 BA 40 CF 60 CA A3 85
 B6 0C 12 F7 B2 2B 96 84 2C 6D 9E B1 5A 20 A0 63
 D1 4C 63 FC 1F C9 71 10 A5 48 A9 44 C3 91 5F 5E
 D3 C0 2F 98 CB C3 AC 72 C0 14 F0 95 4F C3 C2 3D
 BA 25 DB 13 8A 65 AE 94 16 7D A8 7D B7 1C EC F5
 CE 8B 81 8B 29 B9 08 5D D0 3D 23 F9 5E 77 07 C1
 9D 65 B3 DE 82 AA 83 81 2A FA 32 0B 7E 2B B2 A6
 0A EF D7 7C 1F 14 BE 9E 7D 18 E8 D4 E9 6D 4C F7
 E6 C9 40 9D 76 BA 3F 24 FC D6 D3 04 91 70 BF C4
 14 C5 49 A4 C9 21 86 F2 95 FB 81 E2 86 AF 1E 03
 7C E3 E1 69 31 38 A1 B3 5A A7 FB D5 C4 08 09 85
 DE 1F C8 A6 4F 48 0A 63 D2 AD 6D EE 22 FF 04 AA
 2C 09 20 28 82 E7 FC B8 FC 19 85 D9 FF FB E5 88
 D1 30 92 66 EF 72 C7 A9 BC 8D 92 FF EB 6F F1 F8
 95 B7 E5 CB C6 17 4E 5D 53 82 A6 1F 36 60 73 37
 EE FB 8D 8A F0 CE 5D 8E A6 63 FB 64 E9 62 E7 B0
 49 C8 DF 57 34 BC 11 4A B1 18 10 81 BC B3 93 8E
 FB 8D 76 80 DB C1 04 64 1C BB A6 3A EE 1C B3 E6
 9E C4 61 D3 5B 41 78 6F 7D 8A 8F D9 99 FD F1 31
 14 D5 87 FF 3F C7 A4 92 59 21 54 55 E7 80 F3 4A
 16 D7 E5 E8 2B DA 22 CC 9B 5E D7 36 8B 79 FD 76
 AF CE 94 7E AA F0 C3 88 DB 31 23 DA 21 8F 2C BE
 76 08 97 80 14 F8 24 27 40 83 C3 7E 1E 14 B8 AE
 33 AE 81 BF 2A 6F 13 E2 CD 97 F6 04 B6 69 BC 03
 D4 55 BF 30 7F E3 5E E2 DB FC ED 21 1B BC 05 E6
 42 D4 84 BB 5B B0 39 72 DD 90 07 CD 96 02 FA 07
 F8 B2 1A 20 90 1A F1 A8 7F 19 9B 87 CB 23 CB 78
 2D 9D 3B A5 47 80 24 3C 2B 0A 4D 07 FC A9 3A D8
 B8 73 97 F0 DD 0F 25 D3 6B F6 19 B5 6A 54 F3 D3
 19 22 58 C5 EB 4C 44 1D BF 97 8A 34 1A 84 80 82
 68 D0 4E 05 81 56 6B 69 25 D5 0F B3 DC 4F EF 53
 23 14 F9 B1 77 E8 32 44 9F 72 86 DC BB 88 DA E1
 A7 C0 00 DC 47 03 B2 CD E0 82 7B 56 C1 EB 64 CE
 E8 22 22 FE 95 89 3B 99 B0 E1 DD DF 69 B5 ED 7F
 04 28 7E 6A 74 87 0B F8 4E 35 B1 4A 52 91 E7 24
 EB 90 28 72 E3 54 65 99 2C EF 4F BF 93 55 32 C1
 99 70 11 DB 94 89 EE 65 35 46 75 CD 8B 04 55 48
 4B 74 EE 04 50 5C 2C F1 02 1B AE B3 5F BB 50 1A
 B2 84 5E 97 AB 71 78 E8 55 60 76 26 9B CE C4 E9
 DF DD 5D C5 2A 96 D5 92 35 CD E3 8D E2 C5 62 4F
 66 42 7C 88 65 19 7B 79 CE C0 BD C8 00 E8 BF 9B
 F7 E8 7F 94 D0 5B F8 04 6F 38 77 91 5C BC 67 DE
 68 10 2B 6F 26 2A C7 C5 AB 25 DE 1B 96 87 B6 98
 2D A0 B1 D1 56 5E C9 9B BC 9C B3 FD 87 84 64 48
 6A 4B 73 67 69 3C DC DD 36 A5 24 CC 48 11 CD 79
 EB A8 1A C6 96 22 B7 EF 07 F7 4F 65 70 61 2F CC
 1D 4B A8 73 D5 24 D0 D2 EF 5E BE D0 6D F7 D2 F6
 BA 48 79 25 06 E3 FE 81 56 F2 D5 E3 56 09 81 50
 88 03 D5 07 6D 70 78 B0 47 79 AE BE E7 31 31 F3
 37 D2 81 1F 25 0F 6A A1 75 E9 FF E3 8C 19 A0 25
 24 E4 27 53 07 A6 3A 67 B2 92 F2 72 D4 CB 6B 71
 2F EF 5A 21 01 95 3E 5E E3 BB FE E0 78 8B A7 01
 50 B1 74 A2 5A 06 40 8C 1C CC 0B 2E 09 7B 98 34
 36 E4 03 94 DE 6C 3F 1F 10 80 8C 40 9B C6 E7 86
 10 FA D2 4A 99 B8 D6 E1 09 35 E8 51 1A 02 63 35
 CD 1C 9F 0B 58 FE 08 66 03 7D 40 87 30 28 2D 5B
 33 25 88 0F CF 7B D6 F9 DC 76 E9 68 CA 6E 2F 9C
 2E 49 FE 51 94 02 3D 42 FA EB 4A E6 02 47 0D 24
 BB 5B 56 18 AD 30 27 B3 C6 9A B2 04 E3 F9 DC C6
 E9 40 F7 0C F9 47 09 F0 9A 70 68 D8 16 4E BF EC
 02 07 3D 83 5A 97 68 74 3A 7B CB 93 9E 2A 9E 79
 EE C7 44 49 60 81 69 55 E1 74 32 F7 02 0D 9C 90
 8F A8 BF F0 7B 56 4B 7B 45 A7 50 5C FB A2 66 45
 CA A3 93 6F 46 9B 6D E1 A4 E9 C0 54 32 09 7E B6
 2C E6 7F 34 5C C2 47 74 9E CC 44 1D 7D D4 07 D7
 5C B8 D8 49 CC CD 16 90 D5 38 7E D4 A4 5A B2 4E
 D8 9F 22 98 00 EB B7 12 5C 9E A6 94 33 CA F9 38
 E3 47 43 63 59 2D 2A E9 4A 2D 41 18 18 2F 93 87
 D9 86 6F A1 36 41 E2 32 83 B1 DB A9 F4 48 AD BB
 34 BB FC 40 4A B2 DE A5 0E DC 72 86 95 F3 6C 91
 92 E7 1D AF 53 45 B1 B6 E2 78 CB A7 3B 12 7F 36
 54 EB E3 60 ED CE 2E FB 7A B2 CE F3 88 45 90 AC
 5A 94 0D 7C 82 12 5A 85 FE 07 1B 46 8B 58 91 13
 D2 EF 74 8A CD 53 A4 F2 BF 5B 60 AD FF 6D 11 13
 F4 2B 4E 87 B5 81 B5 B1 93 0D 28 E6 7F BE F7 15
 17 0E BA 5A AA 92 1A B8 04 50 7C 77 4F 3F 4A 74
 B3 C4 EF B0 33 6E 4E 53 5F 92 95 65 76 6B AE 11
 37 44 68 F2 09 C0 19 94 E7 79 48 F3 20 04 83 37
 2B 77 69 A9 0F AA E4 3C 70 43 83 A4 C2 B7 16 7B
 C0 F9 BA 0A FD 1A BD 80 1A B5 E3 A6 11 E6 D8 1D
 D1 00 D5 C4 96 91 41 B6 4F 98 61 CF 6F 64 7F 40
 E1 35 B0 2A A6 AD 67 A7 A0 AB ED 62 00 5C 8E FC
 AD DB BA 4F 50 2C 41 A6 2A 9E 2A A7 2A 0F 95 70
 7F 3B 2C 2D 12 60 8E BC B1 88 E2 68 A0 F0 79 E7
 7F 5B F9 F8 31 0C BF 64 3F DB D1 51 C7 62 61 B0
 4B 15 AB 94 29 B3 0F 42 E2 6D FD 61 7B 1C B0 11
 3D 4A 13 BF 62 D5 CA 5D 69 83 69 0A 98 E4 CB 7C
 A5 83 E4 F9 F0 F5 CD E5 9A CB 9E 0E 65 1F E1 99
 FD EE 75 92 A9 3B FE 6E 26 7C 76 D0 41 0B 71 A1
 75 36 3D 36 C1 43 14 69 41 08 35 3F 1B 12 22 18
 59 39 1F 7B E1 8F EE 35 AE 4C 14 5B 78 89 24 6F
 38 E7 2B 83 52 1C A7 92 C1 6F 61 78 49 B0 42 49
 80 0F FD 62 0A A8 50 1C 93 23 68 A2 51 98 6C E5
 DF 1F 01 AF 84 E8 F5 37 09 D4 55 B8 31 44 1F 2B
 13 3D CE E9 9F 9E F4 71 8A AD 58 5C AE 9A DE 2E
 8B EF 9D 27 99 CB B0 52 7C 1F 2D 79 4D C5 0D 4A
 50 D0 2F D6 B1 E2 C2 E0 8C 38 BB D7 04 10 51 36
 16 41 F9 5E EB B3 6B 2D 6F F2 90 E5 0F 44 26 5A
 6C 0E 11 AF 5B 54 9C 1D A6 4C C1 3A 3D 2D 16 80
 BD A9 72 2C 36 EF 9A 87 EF 64 18 A8 B7 7C 0C D1
 52 8D 6F 6B 77 49 E1 DC 5A 1F 95 11 E6 3B 81 13
 92 3F 3A CA FF C5 DC 1A EB EB CB 8B 95 63 2C 10
 9B 5C 25 F7 CD 87 1F 41 B6 BF 8E 3F 42 96 55 0C
 CB 10 B5 BB E6 CF 21 1A 16 86 D1 00 B5 CA DF 77
 ED 2E A7 77 B0 6D E3 20 9F 73 66 6F 5D 43 20 70
 C5 09 A7 6C 2F 41 67 78 5C 57 95 C3 09 D4 52 96
 4F 85 B3 A2 FF 96 5C CF 32 34 B7 EC BF 2A 05 27
 18 D6 BD 24 9B 4C E8 4F 49 06 91 46 5D 48 C4 D2
 C2 D3 6A 37 73 1F 84 87 4B 3A 8C FC 83 DC C4 E9
 37 B2 74 E9 74 EF FE 05 3A 53 F7 C7 28 18 5C F0
 E2 A6 71 50 4F DE 34 0C 80 AA 0C 89 A0 98 F0 F8
 B3 24 A1 F7 E8 2A CA 70 7A 29 70 D2 F9 0D D0 83
 68 2B 07 68 29 74 19 73 9B 97 D1 A4 95 11 8A 4D
 86 E2 B2 42 3E 2E 5F E3 DD E0 85 2D A2 D6 76 BE
 77 EC FB D3 DD 3A 05 4A F0 91 D9 B4 A2 F5 62 94
 FB B5 CF AF 9C F6 2E 0F 25 A4 52 4E D2 8B 5B A7
 8C 9E 0A D6 F4 69 EC 5C 5A 72 BC C6 1E 23 70 B5
 1D 21 E3 74 50 2A 98 FD 0F 9B F3 0F E6 0B BD 6F
 DC F0 E3 37 B5 2C 89 B9 CE 29 60 AA 65 BA 92 10
 0E 34 75 E7 C8 BB FB 39 3B DF 6E A2 26 81 2C 6A
 F8 1E F2 19 8B 08 B5 2B 03 F7 BB 16 9B 30 9F AD
 D6 33 0A 5D 5E C6 E7 01 D7 82 61 53 C6 A5 B2 7D
 BD 41 A1 B6 59 33 7E 38 75 67 5F 53 A1 9E 82 FD
 39 62 D4 6E 0D 33 C1 D4 01 6A EF AE 66 66 EB 3D
 AD AA A0 38 95 1A D3 22 BA E2 CD 4C BA 3B FF 28
 21 DA 99 33 62 DF 64 88 33 DE F0 1E 5F A4 A8 1B
 77 59 55 47 04 53 DC E9 D7 F2 8C 81 54 B5 48 79
 D3 54 3F 98 FF EB C9 99 3E 6E 9A 7B 29 D2 B1 68
 96 43 9D 6F 97 21 45 9F 58 6A 40 65 B6 89 00 B0
 C3 B7 E6 6F 7D 0C 7B 7A E7 BB 59 29 2A D5 0B FF
 13 F1 2B DE AD 42 C5 05 19 4E 11 67 F3 38 D3 05
 AA 1A F5 73 42 E8 A2 5B 8B 9B D0 DD 14 D3 58 1B
 91 50 CF C6 C5 E7 C6 48 F8 81 D7 A2 E4 AA 0D A3
 FD 2E F0 E2 83 02 9F B0 11 2B AA 5B 9B 7E 2C 2E
 87 61 68 CE A2 47 9F 22 54 A0 23 7F 2E 32 3D C2
 1E 1E C9 87 DB BE 86 AF 44 8D D1 C7 B2 88 B6 DE
 5E 6F 4F 4F 92 D4 6C B7 21 D0 AA 4A AD F2 08 53
 28 3C E8 1B 1B 54 82 9E 6F BA CB DC 6A 7D 9E 7C
 75 F8 D1 6D AD 15 CE B2 B6 3A 7F CE ED 3A BC 95
 58 3B EC 9D B7 B7 6F CC D6 2D CE C2 74 2E 0C 0C
 D8 78 37 D3 1A 83 DB DF D6 19 98 24 00 80 84 04
 B3 C6 46 36 80 B6 6D 18 0B 62 CB 28 D2 94 17 98
 86 DE 3C A2 BF E6 9B 78 C7 3E A8 9C A6 07 83 0D
 C8 E3 24 40 F6 1B BC 56 D1 8D 6A CB C0 1D B2 CB
 80 80 87 BA 75 D0 A8 E1 C0 11 63 5C 26 6C 10 2F
 1A 81 94 75 F9 8C 05 C7 09 E5 1B C3 0A 1B 85 02
 71 1F 70 FB B0 2B EF B6 24 CA 2D A4 B9 90 C3 4D
 16 25 59 BD 2C 95 AE 6F 78 2A 58 36 02 37 62 A4
 DB 81 D5 52 34 B1 79 40 29 23 86 CB 12 4E 71 26
 82 2B 6B E2 E8 FA 2B 4C 8C 01 06 45 B4 CF 80 72
 59 4E DC B8 CD 5F 72 B4 2D AE 3B 07 0F 8C 68 C2
 E9 F1 7D EA 81 A2 FA 63 17 D4 3A A3 50 29 A7 E4
 A5 54 A0 4A EB 3F 09 DC F3 25 F3 D8 C9 DF 92 0F
 43 82 E8 2C 71 40 2F 40 50 7B 32 45 31 BC BA 1B
 47 6D B4 82 F9 DF 7E 4F 3A F0 AF BE 4A 6D FF DB
 BE C9 5E 61 2C 52 1E 06 59 61 FD C0 78 E5 30 EB
 DF 03 BE 08 E9 F2 59 FA 93 51 22 73 F3 6C BB EA
 08 9B 47 21 D9 1E F1 F4 36 DD 58 F9 C9 54 5A B8
 5A D8 C0 AA A6 E7 C8 24 6B 39 F2 1C C1 F9 E7 DB
 71 F1 08 3D B3 B1 05 34 DB 9B 6A 77 1A A7 EF 11
 83 BA A1 59 27 51 D2 2B BE 73 D3 FA CD CD B9 40
 D5 AA 0F E9 66 E7 96 C8 0E 03 6E DB 15 0B 27 FF
 2A 98 07 73 AC 22 BB 15 D2 06 2D 3D F5 86 19 9D
 2D A9 7C D8 94 EB 7A 37 45 78 BB 3B B4 F6 F3 11
 14 64 3A 1D 09 08 63 FC A8 2C C5 DE 26 A9 C9 32
 4B B5 33 C7 37 8B 02 D6 B0 0E AD 66 AB CB B5 BD
 8A D6 14 91 FA FC 18 AD F2 04 82 0C BD 59 C7 35
 06 00 14 4E C1 E1 C2 15 6D 0D 82 69 D9 5D 38 90
 D7 02 A3 5E 4C EF 96 29 15 28 32 F6 8F 94 29 0E
 6A 3F 47 9D 7B 9D BC 63 21 8E 1C 8E 95 12 19 FF
 68 8F F9 AE 93 C4 CF 7B B1 02 5B 6B 6F 3F BE 91
 23 C9 13 08 A2 82 0A B5 4C BB BB 12 77 D2 B0 A7
 69 3D 2F ED C7 A6 6A 77 88 BB 9B 34 26 27 A7 8E
 D4 D3 34 82 3F 46 8A 7F 5C CF 72 7B 11 7E 7E B9
 78 06 FE BD 3E 6D E2 65 8E 16 11 D3 49 38 03 F0
 4E 81 F1 C7 72 29 10 C4 92 A9 55 EA 42 19 E6 D5
 97 92 92 52 44 CF 32 6F 7D 00 6E 54 3F 15 52 0D
 59 11 33 1F AF 89 40 12 34 E3 00 2A F6 44 D4 C7
 EF 2B 93 C8 E5 C2 47 A0 E3 DA EE 0B 01 C3 79 AE
 70 5A 52 99 A1 BF 7B A0 3D 33 7C 8C 71 BE 0D 4E
 39 13 8D 07 58 4C 49 C6 00 5B 63 E0 6C 78 53 63
 3F D3 D2 78 D0 79 B1 78 B5 05 EA 44 4A 4E 95 5A
 B5 D5 3E 96 C0 AD 05 E3 6A 24 D2 05 28 16 A4 A0
 5F F4 E0 F6 C3 19 6E B2 77 52 E7 D0 A7 DF 82 F9
 30 46 4B FC 71 67 6A 5A A8 B1 A8 05 82 BA E1 9D
 EB 01 30 EC 2E ED 2D 3E EB 0B 01 3C 83 3E 55 E8
 05 5F 00 23 A6 57 4F 8F BE EF 0F D9 03 99 9A 4F
 17 02 87 5D 8D 27 D4 9F 02 92 4D 85 A2 1A C9 63
 6C B9 AE D8 B6 6D 77 E0 82 37 2C 38 38 61 4C 7F
 4C F2 21 B5 A2 E1 15 1B 66 05 F9 7D 9B 2E 71 A8
 ED EE 39 8D E2 B3 66 E7 E7 25 1E 8B 5D 63 12 6E
 93 B6 06 98 90 D5 CA 94 66 6C 1C 91 05 19 AD 74
 A5 0F 6E 3C 17 45 6A 24 BA 03 C6 86 63 FF 1D F7
 5F C4 E3 E1 85 50 FA 88 D5 90 22 9B E6 5A 5B 77
 9E 38 5D 5E 65 8A 45 EA B1 8E BD F7 77 71 40 4D
 AC FA 0C E7 96 94 DB 59 C9 77 C6 BF 4F CC 21 F1
 78 DB 48 43 DE CC 31 D8 E6 6B 5A E1 C3 7E CB B9
 52 6C 15 18 AE 83 94 5E 28 99 F4 F4 47 8A 52 0C
 54 F7 05 00 A5 AD C3 2C 9B AD A2 DE D6 A3 62 07
 9D 47 89 B5 1D 10 0A 19 EC A0 BA 3D 43 B2 84 CA
 D0 10 B7 A7 E2 B2 41 1B 37 09 7E 23 35 B8 F7 4C
 76 03 18 DE F2 B2 4F 6C 61 02 93 6D 1F 5F 4C D5
 28 AE 17 99 B5 46 94 E3 06 FD CE C9 90 0C 3F 81
 98 12 11 3B 83 A7 5F 68 39 0B 86 AD 41 06 13 80
 40 85 75 71 4A 06 B7 46 B8 5E F4 43 1F 16 1B 93
 D4 77 80 DF 41 A2 83 52 08 8A CA 9E 5A 1B C1 C4
 9E 25 EA AA B1 B4 4A 4C 6A AB 02 DB CA F4 4C 95
 DC 36 66 6E 41 4E 0C 08 51 2B EA 8B 45 C8 00 0A
 DE 96 19 DB 22 1F 0B 9B 53 56 22 EC AE B4 95 45
 95 CD 8F 0B F1 16 C2 4D FE 21 CA F9 9C E5 5F 10
 71 D4 97 3F F5 7E E5 2B 38 6D BF 65 89 B7 F1 DC
 FA 7F B2 4E 72 78 DF 94 E6 6D A3 28 E3 21 0D E1
 A2 94 EA 74 64 12 17 A6 99 6B 41 58 3F BA 56 28
 00 DE C4 7A 25 EB 58 9A 87 02 97 ED 63 DF 90 42
 12 28 73 8A BE B4 0D 13 B5 3F 86 E2 0C 10 67 FA
 1B F2 18 81 5B 53 0E C4 C0 CB ED C8 41 3A 95 7D
 D4 79 CC EE 40 80 18 FC 2D B9 04 E9 CE 1A 63 4E
 CA 80 41 AD A8 30 5E 44 58 29 A4 DA CB 1C 0A 48
 8A 21 41 48 1C A8 4F DC 5C FE 68 DF 69 EF 8A CA
 C9 E2 4C E7 5A E1 FC DD D1 95 6F F2 7D 93 18 48
 F4 5A C8 4D BB 99 9A 00 C8 00 5A A8 2A 62 20 A8
 71 CD D7 A8 AA C2 B2 1E CF 51 09 E6 59 1F A0 05
 80 99 23 24 CE 35 6B F0 F2 A7 DB FC 2F 64 CB 7F
 C1 F6 A5 79 72 7D D4 14 D5 61 CE D7 70 10 30 96
 00 13 4B 6C F8 A4 1C 9D CF 75 B3 E4 74 B0 3D 10
 50 F8 38 6D 54 EC 36 0B 3D 10 7E 49 09 D9 7F A1
 28 61 90 2B 6B 6C 11 B5 8E 3E E2 C3 3C 71 D8 84
 3B A9 10 DF F1 A9 32 DC D9 43 92 DC 5D A3 06 C0
 C6 FE 1B 90 5B 4B B6 D7 3D 96 50 0B 5C CD 8B E1
 A1 16 00 BC 95 D7 86 42 1A FD 6C 3B BF 0C F7 B7
 BE DE B2 56 84 1A 90 5C E3 26 4C A5 21 A2 49 09
 55 A7 42 CA 4A 30 B0 8D F9 BA C0 B4 C9 B6 90 33
 D9 1B 06 19 53 F5 7E 4A 2B 8F 10 D2 FD 1D FA 85
 7F D3 CA 74 66 9C F7 3B 1C 8E 73 8A E5 5A F0 B7
 80 34 10 78 DD 1D FC F1 76 1D AE 7B CF 57 01 6B
 D1 2B 1E F7 85 77 AB 58 1B 87 77 CF 2C 4C 75 A8
 77 68 00 14 F5 9B 8B BE 14 C0 7F 4B D8 0E F8 69
 4C 64 4B 18 E4 56 27 56 92 C2 F2 CE BC 52 FE 14
 40 1A A3 8F 39 02 A6 C5 B1 65 D3 EB 44 99 1E 5F
 B0 90 CB CF CD 98 3D DF A5 A8 15 E1 13 F6 F1 C9
 BB EA AB 98 DA A8 D8 DB 54 48 9D 03 DB ED B9 13
 D6 49 31 12 DB 8D 03 1F 4D 90 09 E8 42 7A EA B1
 50 F0 39 5B 2D C6 00 0A 10 B6 19 78 12 EE 4A 41
 CC C0 3E C5 EB B9 44 C6 0F 71 E1 A2 59 57 4D 63
 48 10 4D CC 7B 0D 9A 96 3B 5E 51 C2 CF 53 84 8C
* End 2035154263 3734841926