Circuit: * C:\2_WorkDir\LT_SPICE\GitRepository\LTspice\Self_built\LTspice\Wurth_Elektronik_Capacitor_Rev18b\Examples\Wurth_Elektronik\WE-SLM.asc


Date: Tue Apr 30 16:52:08 2019
Total elapsed time: 0.094 seconds.

tnom = 27
temp = 27
method = trap
totiter = 0
traniter = 0
tranpoints = 0
accept = 0
rejected = 0
matrix size = 95
fillins = 292
solver = Normal

