* LTspice Encrypted File
* 
* This encrypted file has been supplied by a 3rd
* party vendor that does not wish to publicize
* the technology used to implement this library.
* 
* Permission is granted to use this file for
* simulations but not to reverse engineer its
* contents.
* 
* Begin:
 B5 5B 34 68 21 E6 0A E3 BF 3D 5C 6D 38 66 6E 13
 47 EE 61 EE 7F 83 FE E5 27 B5 8B 54 98 27 B7 51
 DF E6 EC 1F EE EC EE 4E 8A EC 8E A9 66 36 C3 05
 24 B6 9A 52 37 42 CB A6 A8 F4 49 91 89 B8 11 F4
 3A 45 0D 1E 89 1E 61 20 0E 18 A9 25 7A 42 9E EB
 91 EB 25 3E 4E 43 DF F1 F6 8C 18 D4 C1 0C CD A4
 61 90 71 99 1F F0 57 65 BA 1D D7 A0 C9 CB 06 3D
 12 D6 14 63 86 9A E9 7A 54 C2 2B 01 34 7F 92 D1
 D4 78 DF 69 B2 5B 5B 22 3A E6 A1 B4 5B 44 00 03
 B0 E1 F2 0A 54 42 85 2D 86 0E 78 C0 51 36 2E 28
 37 66 44 8D 17 41 0D 27 33 82 03 65 27 75 E4 F1
 6A 8B 33 90 16 05 53 CD E2 58 EF FD 82 99 DC F5
 14 34 43 64 56 73 FF 34 56 29 3F 6A BA 5D EF F0
 CD EB 1F E9 D8 31 5C A0 03 36 B2 D7 D4 BC 79 C1
 37 90 9A 80 E9 ED 59 7B 89 40 7A D1 DD 7A CA 99
 46 EA 47 74 2C AC B5 E7 D0 49 B3 5B 1F 3C FD A1
 89 4F 55 3F 26 B2 71 1E C2 1F 15 49 45 29 D7 07
 8E C0 5E 37 5B 9F B7 E3 36 05 C2 91 63 1A 1F B6
 34 CD D6 E7 F9 DF 09 46 95 81 CF 04 6A F3 C1 0F
 F5 0F B5 F4 C1 A5 11 FB BF A0 BC 70 04 B2 2E D8
 F1 B9 2F E4 0A 88 53 B2 1F D7 8A 92 BF BC 3B 38
 34 38 36 B0 EF 53 75 0E 6A A2 89 34 C7 07 6E 99
 E0 28 12 CE 1E A9 CF 17 EE 22 7C DE F0 F4 37 1F
 41 CD 45 90 BC B1 4F 68 47 5C BC 45 F0 0A 6D F7
 29 9F AB 35 85 C0 4F D4 98 EE F1 39 14 59 03 06
 C2 F3 41 BA 0B 09 53 52 CA 4D 6F D4 46 B5 B5 F2
 25 7E 44 9B 0B E0 BE 23 C3 B8 CA 8D 25 BA B9 62
 A5 7C 7D 03 74 0D 7E 2A F1 34 E5 88 13 6F D4 16
 1D 7D CD 9C F7 FE C1 67 69 E1 61 61 AA 93 80 9E
 73 33 88 5B 56 BB A6 26 0A 58 1C FB 7B C4 BC 42
 A1 C3 7A F6 D7 D4 7A DF 4A 5E 88 24 46 F4 70 0A
 83 4F C3 F4 86 00 96 32 F6 C2 FD 34 9C E5 9C CB
 BF 67 BB 4C 10 63 9D 22 35 1B 70 6D 9A 5F 74 53
 10 B6 D2 37 37 A3 62 45 2B F8 46 CB 15 A9 85 4B
 7C 23 C7 ED 65 ED 40 53 FF A6 22 56 DA C9 0F AB
 4F C5 1D 15 C4 93 44 53 04 00 F8 10 01 68 44 56
 BA F2 92 E4 1E 65 B9 9F 66 9E F0 E6 0B BD 39 71
 A3 2E 03 A0 02 D8 1C 18 BA 1F 6E 5E 35 FD F8 96
 46 CC 50 9A 06 C5 4C 8E 70 10 FC 64 18 D1 F8 EA
 FB E6 2D A3 11 48 1F 80 B4 FC F0 39 48 30 9F 61
 F6 89 66 FB 0B F8 21 88 AD FF 1A 37 48 47 4D 24
 43 A2 D6 EB 0D 25 61 A0 B1 58 80 0B 43 96 B5 9A
 F2 7F 67 9D 71 9C F4 74 4F E3 A8 39 BA 55 AE B5
 09 D0 70 C4 B9 A1 B2 40 FA 20 8F DF F7 B6 9F F9
 1C 15 00 8D FC AE CF 6F 3A 79 EA 31 B2 CB 5D CC
 0B 59 14 B1 D5 C9 86 27 BE 7F 63 21 D0 EE 13 E2
 DE 62 88 20 57 9C C1 2E 69 E0 11 DB 4F 1E E7 16
 0C 49 77 A4 E6 48 D3 D9 9D 9B CE CC 30 AB 9A 82
 47 0A B2 16 D8 9E 92 8C 38 0B 25 62 11 CE FF D9
 98 C8 14 4C EE C5 7A C5 EA 68 D2 73 7A 43 87 AF
 52 AB 0C 03 8B 3A 35 9B D7 80 E4 BD 84 52 E6 BA
 C4 E4 3F 6C 20 46 DF 3F 2C FD F8 4E 59 85 51 11
 DF 46 97 C1 ED AF 5D 0D 22 E1 D9 C6 B4 20 C3 A0
 D7 E2 EC 10 73 C0 29 8E F0 55 9A 9D 32 17 FA EC
 1F 9B 4E 24 4B 73 9A CD D4 3E 69 44 D8 27 C3 A4
 6C 46 11 28 3B 4A E1 7B D8 F9 29 4E B5 C6 B1 C8
 EE 27 20 01 AA A9 5C 7E 09 8A B5 8D 95 46 3A 92
 9F 74 04 FC D0 96 5F 54 56 69 0B 7E 65 97 8F FC
 B1 5E 64 CB C8 30 F3 9A 5C E8 2B B8 C3 18 A4 B8
 4C AB 94 F3 45 32 FB 40 93 30 01 F5 87 4E C9 8C
 76 DC D3 08 9B F8 F3 4E ED 18 CC BB 42 9F D9 5E
 63 F7 B9 91 2B 27 29 BB C4 E6 26 B6 D6 43 CC AD
 42 74 6B B6 6F 62 DE 92 C3 51 CD 50 71 FC 27 36
 0D F6 E1 98 58 A4 29 FC D8 00 FE 9E C7 FC 2F EC
 60 21 97 38 22 5F 16 02 75 4D 9E D5 13 AC BD 12
 1F 2F E6 2A 85 C0 C9 C8 EF A6 AD 10 60 49 EF EA
 77 BA BA 28 9F C1 E3 D5 65 83 7E CE 9D 96 0A 8F
 22 F4 2A 99 AF B3 89 53 1C 61 AF 6B 32 1E 11 B6
 CC 48 B5 F6 49 22 F1 28 7A B4 84 FA AF 2E 51 46
 0E FF 72 73 53 49 E7 D3 53 9C 77 94 AC D2 49 C0
 9C B8 D4 39 8F F5 1F 71 95 E2 E8 A4 DE F7 BE 99
 C9 87 F3 81 93 E8 2E 01 21 3E C6 13 DF 2E D3 F1
 65 72 77 9F 6E 0E F3 49 44 73 E1 4E 9E D8 8C A6
 89 66 BC 93 DA FD 63 EB FF E6 B5 8F 11 F9 76 BE
 EF 8A D1 FE 68 0C 47 00 81 61 1A A3 52 D5 CC 38
 D1 48 08 6D CF F9 8F 4B 75 F6 55 94 59 36 CA DE
 38 4B 98 CB 17 CE D3 EB A8 ED 7D 00 5D 75 60 31
 82 9E AC 52 51 58 D1 DC DE 70 4B AE F5 A7 21 D5
 B0 54 C7 AC 4B 59 36 05 04 70 07 71 59 48 31 56
 B5 42 AC 9B D0 91 20 3A 14 51 A4 DF 4D 98 76 27
 37 AE 7B B8 39 66 D6 03 3E 74 57 2D DF 39 9F 66
 84 49 71 63 C4 65 36 F5 EC B9 F3 A9 55 F7 D2 7B
 F2 79 E9 A9 BF 30 47 7B E2 17 AB 2A 01 0E 6D CF
 AA 82 4E 7C 85 3A 96 28 51 6B 34 8C 6C 3A B1 51
 D3 61 8E 02 5C 3A 03 CC C7 78 88 69 25 ED D8 61
 C2 88 DB A1 62 22 3C 4F DA 01 CD F2 77 3B DA 26
 A6 53 F0 FC 54 72 F2 A7 7A AA D7 08 38 7B 1D AC
 8C E9 00 DB 59 F7 BC BE 8C A2 F1 C0 26 EC BE 4C
 7C A1 F7 4B 2B C9 B1 FA DD F4 43 1C 14 9C 81 5C
 E8 36 EF E3 54 F2 8F 6D 2C 88 76 1C 59 8E C7 88
 A7 02 72 33 2A 36 DA 18 D6 D3 46 5A 81 2A AD 10
 D7 F4 E9 5F 86 83 61 BE E0 FB 1E 18 8E 8D D6 0B
 15 33 3F 67 A2 6D 4D 04 47 FE 7B 04 8B C7 BD 3E
 25 53 97 35 D7 96 5B 34 FF 09 F3 2E BE 59 6E 78
 E7 BF 6B 54 1E FB F0 3C B1 E8 19 3E 3F D6 83 68
 C6 54 00 77 1C 90 D3 10 06 46 1D 75 F0 92 DA F5
 8C CC F4 3F 35 E7 33 4D 62 58 36 8D C4 D6 5F D3
 11 8E 6A 06 32 1F 06 65 F9 B1 C3 5B 96 AD B5 FA
 4C FF B7 23 B2 BF E7 D8 40 D4 5D 0E 25 8D 2B B6
 A6 0C D0 8A 15 E7 14 1B E2 97 13 AB 25 AD 11 F9
 60 D8 83 43 46 CB F9 54 21 76 72 B5 B9 0F 25 DC
 48 78 64 50 25 DB DA 7A 36 04 0E 66 EC 95 D5 A1
 33 66 2B 46 77 C3 2C A0 0F 06 46 B3 77 8B 96 FF
 AB E4 64 46 11 FE F2 8E 0B 2A 63 49 0E 4B A2 0D
 21 14 00 CC 0D B2 1B D0 8C 96 1A 13 5E B6 04 7F
 94 4D 5D 17 D8 79 26 72 B5 70 6F BC 0B CD 75 60
 D3 1B F8 87 11 0E 99 4B 12 7F 3B FD C6 FA 7F 2A
 39 F5 3B 23 82 AA D1 2E 39 0B E6 6D 67 08 3E BD
 0B D2 33 98 1E 4B 84 45 C2 9E 5E 1C 1A 24 A6 8D
 D0 4A 91 74 F9 7E 4B 13 9E A5 AE 61 40 7E D5 1D
 67 E7 FE 7B 96 84 82 1D C8 D9 99 02 6C 31 00 79
 43 A7 91 75 AA 1D EF 17 1B 92 9C C9 73 91 50 67
 84 D9 65 6B 74 52 C8 5A 63 44 DF F4 DA A0 2B DD
 6C 43 F9 59 75 D1 C3 DF 34 9B 6E F5 CB CB D1 78
 53 18 D4 E2 6F 4F 77 4C AF 33 53 91 D6 20 05 6A
 D1 08 2C 20 45 EF 0D 57 61 37 77 27 49 3E B0 8D
 03 2F BE CC 48 83 E5 A1 48 02 32 97 26 D1 61 C3
 76 1D DE F8 B4 D0 27 12 C7 61 0D 3E 40 F1 A2 75
 BD FA AD A9 62 D5 14 63 82 5C 09 A5 7A E6 03 CF
 6E 11 9E C3 0F 39 E1 3C A9 AC 4F 33 70 E4 FD 1B
 D7 11 EC 8C 38 0E 56 41 CC 06 56 07 2F 17 ED C0
 ED 7A 37 C9 AE 8E F1 B5 22 CD 6E 76 AF C8 46 DA
 60 6A D2 AB 85 59 AF 68 7A F7 1F CE 62 0D 87 C6
 2E AE E4 A5 97 D1 27 D2 49 B4 C8 EE CA 40 57 51
 C3 5D 34 E3 C0 0E EF FB 9E 57 86 CE 06 EA 1B 7B
 7B 6B 2A CF B9 FB BA 77 E7 2F 99 05 7E CC F1 AB
 CB 88 9B 25 5D CF 56 D2 90 CD C7 50 5B E0 5A 44
 E2 29 03 8F 83 27 C8 61 9B C6 21 1E 41 0D 84 5C
 DA 05 D1 FE 97 AD 31 5D B8 4B FD 73 5C 05 68 6D
 6E 97 29 5B 23 94 FC 66 D7 7F 09 FE 37 8A 1F 47
 EE 7E 08 F4 01 31 5C 6A 19 4C CD 67 C1 9B 4F 00
 F6 92 8C CD 47 60 4A 01 CD 5C C8 EA 03 CC F9 1F
 51 58 CA 1E F4 7F 83 FB 99 34 C3 25 2D 6A D7 F6
 40 B9 A3 9B E1 85 64 F2 3D 08 95 B0 13 43 E3 33
 B5 78 3F AB 7D 00 C1 71 BA F5 C4 E1 F7 5A 28 59
 C3 C9 29 6A D5 56 13 5B 2C C9 76 3B 8D C9 FE 46
 36 2E 87 A0 47 FC 7D FA 85 C0 30 85 72 93 44 67
 0D A2 B6 37 A4 BD 10 BC AA 6E AF 5B 18 2E A8 4F
 FA DD D7 46 2E 7F DE 81 91 FE 57 FC 11 B3 8F 56
 D4 AF 85 DF A0 8D D2 36 DB E8 73 2A 71 98 62 0B
 5A F1 D9 AD DC 81 11 9F D3 24 45 19 88 05 50 DE
 C7 D5 E1 04 9B F4 3F 7E 3C 6F C2 DD 61 B6 FD 98
 13 FF DA E2 0C 96 F3 2A 2D 50 FF 20 E4 90 03 D2
 91 C6 DE F6 89 59 E1 98 5D 9C 90 A5 2A 3F 68 96
 46 F8 51 05 8D 0E 78 54 3B CA 00 B9 A1 76 CA B6
 C1 83 72 F0 6C 62 03 8D 4D 02 BA 8F 9B FA C1 E6
 D0 7F 1F 5D 54 21 16 8B F2 F2 13 CD E8 2F 50 B0
 77 A6 73 C6 E0 C1 1C AE 40 D2 D5 DB 4E 1A FF F2
 7D D4 63 7A 0D 77 39 82 67 0B 60 F2 F4 BF 66 EA
 36 A7 57 61 D9 F2 F0 54 DF 12 8B 88 CA 04 B6 C1
 EA D6 C9 55 67 51 CF A6 68 8E AD DC D2 A3 3B 78
 2C 6A E5 4D 5D D7 57 8F 66 9A 15 CD 8A 0B AE 65
 04 4A 09 C2 2E 40 BF 10 87 53 0E 51 D2 3A EC A7
 04 D3 05 9A 1A 67 71 63 A0 B4 DF B3 BC 9C 03 CD
 F7 5D EB B4 5D A1 F6 2A 64 C6 24 F7 B1 8B 0D E8
 20 38 93 DA 70 87 34 40 3F 47 A5 F5 88 80 FC 75
 A6 64 EF 1A 5C 2C 7F 93 D8 92 75 C6 41 CE 4B 54
 3B B7 23 68 D4 61 CA 66 9D BD DF 31 05 82 3C 5B
 44 2C D0 17 12 92 91 D5 29 DC 0A B9 96 00 F9 67
 1E 99 DE 18 68 AD BC D3 B6 CB C6 6C AB 99 62 CC
 21 94 60 00 F7 8C 49 7E 83 0C 68 41 0F D9 0E 7D
 05 B3 41 11 C0 7B F4 9B 26 16 2E 99 BF D1 76 62
 DA 17 07 4E A4 9F C3 8A 2C 2A E0 D5 48 C7 9B 9B
 7B 5A 9C 79 78 A9 4F 66 29 5C 8E AB BA 2A 0B 22
 4B F1 FC 56 29 CF E9 DB 98 16 C0 A4 87 3E F6 18
 FB 63 2B 06 DF 5E 71 CC C2 A3 69 88 3C 9C D9 9C
 53 28 5A A6 51 F5 9B 32 89 E4 CF BC 60 5E 20 91
 BD 6D 1D 93 16 F6 A6 16 BB 35 FB 71 47 D3 5A 5B
 AA C4 4D B8 8E 88 0D 81 8F A6 38 B1 C4 92 95 BF
 92 62 14 4E 17 AF 4E 13 C3 5D B0 3E 20 D6 D9 4D
 D0 48 6F 2D BC 02 2A D5 D1 61 82 71 46 68 0D B0
 F9 6D A1 09 4D 4D AC D9 04 5D 58 12 5B CE C4 AC
 BD A6 40 95 F8 08 F2 E4 4A 85 2B A9 EB 7A B6 42
 00 EB B7 E9 81 C0 54 89 1C 61 43 4C 3F 2F E2 C3
 8A 81 13 7D 58 B9 C8 73 3D 28 44 2C 14 3A F7 B0
 AB 88 DE 7D 99 90 1D 44 48 40 06 05 8E 63 50 37
 F4 73 07 F2 11 59 FF 5C 79 33 D8 8E 9E F9 F6 2D
 08 8D 42 52 57 D5 44 4F 87 C1 B4 F2 FB 12 04 BE
 72 C8 19 07 B3 30 EC 04 77 EC 1A E5 D4 7A E4 69
 C3 2B 7E 9E E3 43 F2 04 1B AF 2B EB 77 DD 5C B5
 13 A5 65 A3 1A 3A 39 C6 AB B6 0A D1 72 D5 E3 81
 65 9A 48 65 42 07 84 34 7F BA BD F6 AC 6D 0B BC
 C4 68 31 0B D0 15 1A 45 A6 CD 87 4B EB 3D 40 D0
 6D 33 CC 2F 77 7C CE C8 7B 57 C3 3F DD 30 F1 04
 C9 CF ED B5 F7 D3 C2 8B B2 AB C8 5C 1F 3B 8C 41
 2F 48 50 8C 60 AA E4 35 E3 3E 7C 82 0E 32 2C 98
 20 E6 E2 E8 7E 63 CE 19 55 85 A9 F3 A8 FA C0 31
 09 78 79 F6 C2 53 DF 72 F4 AC CA 30 22 FC E1 95
 81 E4 A7 46 D0 C6 91 F7 A7 7C 45 16 AB CC F4 3F
 8F CD 4B 0A FF 43 2F 0B 2E D1 49 62 18 86 0E 66
 11 87 28 F0 73 BC 9F DC 23 FD 67 17 C9 6D 14 FC
 D6 A4 8F 67 53 0C B1 E4 46 3C A7 B1 97 EB D9 FF
 94 2D 21 09 F5 C9 A6 6C C9 B9 29 AD 8C DC 45 6C
 A7 BF E8 99 67 5D 52 38 F5 EC F8 78 25 97 19 E1
 DD CA 9A 0E CE F2 1C 19 40 40 BA 19 9C D1 8B 9E
 E4 F7 59 0E 7C 54 52 C1 8C 1B 6F 7F 0D F6 4A E6
 81 6C 0F AD 00 59 9C F5 68 8C 1F 72 33 6E 0D EE
 EF FF 3B 3B 2C AB 2C 88 8F DB 4D B1 5E FF ED 03
 4D 1C E6 8B 88 95 9E 7B D9 8B 43 69 F9 02 04 D4
 33 B0 AB FA 8F E9 5C 0D 70 E0 C9 A6 06 31 DF CC
 50 87 3D 0F 32 0B A7 BE 6B 1A 1A 82 10 37 FA 99
 B3 AA DF E6 20 12 B3 BB A4 A0 71 7C FF 1E 34 88
 4D A3 19 B2 2E 69 58 EC 9D 10 93 B2 C3 36 BB BA
 86 50 92 A9 D9 CC 05 4B F3 4E 3C A9 19 42 AB 05
 A9 C6 00 40 37 02 E8 B6 D1 9E 83 8D 1F 73 2E 60
 F6 D0 94 A1 37 8A 83 5A 81 4E C3 1A F6 67 8A AC
 80 D7 FB 71 BB B3 05 2B 22 30 06 55 18 09 F7 D5
 25 8B AD FF D5 19 79 8B 55 07 C6 94 DB 45 2B 3A
 21 E6 87 BC F4 0D ED 5B 7B A9 7F 3F 4A E5 F5 E9
 27 DB 42 D8 CB F7 ED AF 2A 12 5C 62 78 73 EF 9D
 71 42 9E C4 CF EC 8F DF B0 03 F1 59 21 FE BE D4
 D3 65 58 D3 21 EF 28 1B F7 B8 0F 5C 4C B1 EF 37
 B0 9F E0 4D FE C3 00 BF 24 89 7C 9E 79 EE 15 48
 0A 5D 57 B3 D0 0D 62 2F 90 5D F3 06 D0 7F 02 14
 2D AC 46 5E B3 B4 50 4E 7B 02 53 72 AC 26 6C F1
 97 22 1F 43 49 45 CA 04 37 89 B0 2A 6E 59 5D 96
 3B 52 E4 93 63 1C 9A DD A9 6B 89 E3 03 88 B2 2A
 82 05 DA CD C9 1A 92 B8 88 B8 A7 94 FA 48 49 47
 60 D5 6A BD F7 E9 F6 34 AA 27 BF 1F 9A 6C 85 66
 E7 6F A8 F6 94 42 7D E2 DC 56 77 63 05 D8 7C F9
 BE B0 E3 54 99 B5 BD 30 D5 90 A2 48 04 36 11 F1
 1F 0C E6 02 D7 34 28 D3 1F 16 80 50 54 AA D0 3B
 71 04 F4 39 18 08 3B 5D 88 63 EC 79 80 78 02 86
 4D 9F 3B E2 97 26 FF 19 4C 38 54 1A 30 B7 CD B9
 99 FF B9 6B 16 3B 81 27 DC 6E 36 B5 04 5E C7 93
 4D 70 72 E9 E8 31 A3 D0 77 0C B4 26 0F 2B 87 44
 72 AE F5 DE 6E 97 C4 09 4A A8 3B CE 53 55 14 55
 B6 92 64 D1 BF DD 4F 0F D3 65 D2 25 89 83 13 ED
 03 89 3B EA 39 11 B5 14 10 7B 96 DB A5 AD 7E 8E
 9C 34 8E 82 5F 7F 85 8B 66 BE 83 D0 E8 10 6B E9
 82 E9 3E 8F BE 66 F8 DC A8 18 4A D3 D9 C2 28 D9
 3F 71 75 29 71 5B 87 9A 6C 80 38 6A 5E 93 21 DB
 ED CB 44 70 C7 A6 A8 2A EF 4E C3 3C 6B AD F3 BE
 8F BF 3F F1 06 BA 56 1B 7D 05 EE 9A E3 B1 16 95
 3B 84 85 CB F0 46 CD 9F 47 E2 F4 5A C2 4E 22 16
 6E 01 A3 AA D0 1F AF 8E 74 C0 E8 82 9E 81 07 D0
 53 A4 01 98 1D 67 AF A9 3C 86 DE 30 AD D5 44 8F
 96 7D FC B3 D8 5A 50 90 C5 BB FE 30 38 1A 39 9E
 C0 F1 5F 27 72 FE 07 59 EC B4 12 04 9A 65 CF 98
 4E 66 FB 51 95 56 6D 4F 5A F8 0A B9 55 25 EE 04
 B7 F6 03 42 5C 8E A6 C0 19 F5 13 D8 66 A2 87 16
 FD 1F E0 73 C8 E2 4F E1 30 5D D5 0F F1 D6 56 95
 DC 84 EE 63 97 0B D0 CE 68 BB 26 35 65 E5 AA 2F
 9B 55 3A B4 17 48 A7 CC F7 C7 2F DD 34 A2 18 F2
 2E CB 6F 36 11 A1 75 8E C4 E4 7F 70 61 43 D7 8E
 C4 BE 2A 0E 56 07 75 FD 2B 6D A4 BE 84 40 C9 2B
 EC E6 80 9F 78 68 AA 97 05 E3 1B 05 2F C0 66 E0
 21 75 69 D1 19 27 EB 63 29 32 A8 85 77 03 FA 3B
 93 D0 8A 79 89 4D CE 15 DE CD 43 DE 5C 4D 57 A3
 16 04 6E 85 1D 9C E2 DC 46 68 FD 42 B7 72 4C 40
 CD D5 E6 86 66 9D 85 A4 92 FC 17 A0 54 A1 6D DE
 F7 14 01 8C 9D 72 4D 33 FB 0A 64 34 C2 77 E4 FE
 0D 0E 63 4D C2 78 F9 EA A6 0B 12 B5 FA 7E 28 F1
 75 7B 9B CA 8C CD 39 73 A7 0B E9 38 1A C7 77 74
 F3 A4 33 34 02 54 F6 10 A8 60 FB A7 75 94 B7 40
 D4 98 91 28 59 41 8A 45 C7 75 08 B8 C1 75 37 9C
 8E C3 4D 98 14 64 E7 1B 4A 73 25 4F BE D6 9A 46
 58 4F 47 27 47 BE 7E 61 F5 89 CD 82 F3 4A D5 7B
 02 1C B0 D4 A9 B6 58 9C 28 F3 0B BC B5 E2 A7 07
 53 C6 CE 80 8D 74 46 01 0B 2F DD 5D E2 C3 08 D4
 EA 56 6F 87 C0 E6 61 9C 79 18 BB 21 F9 58 EF 3F
 A7 43 C1 DB E0 23 3A E5 85 C5 18 B2 86 8A E5 C9
 70 71 81 75 FA 9E 94 74 69 18 C4 7F 4B CB FF F0
 DF 49 A1 BE 2B DE 48 C3 D7 B3 54 03 E9 95 61 39
 B1 18 FE 2A 67 42 F4 28 0E D7 A2 44 5B 76 B1 E0
 68 37 50 E7 8B AF F0 61 A7 79 E6 C9 7D B8 77 08
 8F B2 7A 0F 2B CD C2 22 F7 D1 E1 18 2E C1 14 05
 68 F7 C4 64 46 BF 12 67 87 9B 40 0F BD 1B 4F B2
 6C CC 68 D3 F9 A5 54 BE 02 87 04 5C F2 67 86 77
 2A 80 D9 CF BF E5 B9 2F F2 89 99 AD C2 30 B2 5F
 F6 0E 76 60 2B F6 DC 49 89 47 98 F7 27 88 DD 67
 82 17 48 32 D4 AF DF 91 71 10 D1 DC 75 BE 03 0C
 B1 DD 80 79 13 59 4B 2A 0A 07 34 94 E7 2F 9C 48
 A0 6C C7 0A F5 13 62 84 C4 A3 3A BA 55 DF 03 B4
 C6 92 45 86 0E 12 93 49 A8 79 62 D6 A7 23 31 55
 F9 7F AD 0D 91 6B 75 CF E6 3A D1 29 7A 79 C2 24
 90 DF DD D1 FA EA 42 10 02 3D B4 1F AA D7 C7 E4
 51 5F E9 46 9C 48 F6 62 BE 66 C1 2C 89 96 0F A2
 38 B7 C5 A7 22 35 C6 D2 01 68 8A F5 7B AD 1F 9B
 B8 70 23 B0 30 64 6A 19 90 3D 3B 08 97 1C 34 8E
 B7 2E 1A 18 3E 4A ED D7 6F 25 B5 48 B0 1C DB F4
 FE 39 63 DE 66 A0 8B A3 DF 18 72 CA AB 29 51 C6
 CE EF D7 02 58 DC 7A 40 C9 52 AD 66 7E F5 90 08
 B7 BB 4A BF B8 B9 68 8A CF E6 71 A2 A4 E3 C8 0F
 32 9A BB C9 6A 67 5D 55 38 36 A4 7A 1C 24 2D 44
 61 F8 BC 16 A9 2B 83 27 C0 B2 7C C8 27 D5 D2 85
 C5 4F E8 B0 CC 2E 87 C4 CC C9 FD 59 CF 31 5B 45
 CF 0E 05 18 F5 EC 8C 96 A4 B0 46 D3 E6 36 96 4D
 12 85 D6 A2 1F 61 64 37 C3 19 5A 29 BA 8B 70 20
 DF C5 D4 99 78 8F E4 B6 49 40 FA 13 95 91 FF 1A
 F0 AA 6B 1E 8D 91 24 3B BE 13 A4 31 58 1F D2 A8
 3B 8C 74 91 A6 58 A6 A0 3E C1 A4 8E 35 CD 03 B7
 B6 3E CB CF 00 4C 9F BF CC 8C 82 77 0D 8A 4B 93
 39 29 50 A8 8B E3 58 CB AA F0 B9 60 A5 8B EC EA
 04 11 3A FA A6 34 54 E9 84 C5 7C 5F F6 53 A3 61
 E7 E8 0E 4F 7F 0C A2 0C 3E C6 8B 3D 29 91 68 0D
 51 AD 1E EB BB CD 67 B8 A4 AF 5B 43 8B D8 45 62
 D6 48 8A 32 66 CB 4F B6 F2 9D 60 1A A9 2F 66 55
 4C 27 C5 DE 1D 5F FE FD B5 D7 E6 75 04 B9 0D 96
 2A 0A 8A 0B 5A 55 C7 34 FF 6F 77 92 47 66 CC 91
 03 91 C4 C1 C3 97 D7 09 7B 94 85 48 61 26 DD D0
 5A F8 97 98 96 CB 11 A7 BC 1E 8F 09 96 46 E1 54
 55 2C AB A7 BD B6 98 32 62 F9 7E FF 37 07 02 36
 D7 1E D8 DC F5 F0 30 4D E3 3C C8 69 55 9F 1C 9D
 2B FB 9C E1 23 84 29 D4 00 0B A8 06 53 26 E5 7C
 E5 0A 02 35 51 4D EB 3F 6F 43 08 D6 73 D0 2F 47
 E5 5A 58 FA EB FE 76 1A 91 66 D4 2E D7 64 31 6E
 30 52 C8 0D 66 D2 D4 24 BD B9 72 F7 DB A5 78 42
 5D D1 12 36 79 EE A2 64 30 EA 1D 94 21 B9 AA 44
 F2 5F 1D AB 4F 08 DA 15 E4 24 3D F0 6A B2 F4 E9
 17 60 F0 7C 18 82 E5 BD 49 AF 3E A4 7F 16 E7 DF
 4D 15 A8 30 DC DF DC 7D D1 FE 14 32 55 47 2F B2
 6A 5F 55 F1 AD 1C 8E 35 4D 55 0F 3A 5C 9B DF 1D
 4B 85 81 BC 6B F7 35 6E 37 1E 44 73 B2 F2 8F F9
 C7 FB 25 A6 06 CA 8D C8 4B DB A7 18 90 F0 85 A2
 79 02 63 08 C0 37 C1 2C E1 71 1E AB 81 2F 05 DB
 63 53 79 78 6E 0C 52 67 54 6E 3F 91 3C E0 E4 4E
 C4 88 36 46 3A 5E 3F 7E B3 09 28 B7 BE A2 75 FF
 72 4B 08 26 D2 3E E4 5C EB DA AA 03 66 CC D8 42
 8F 53 33 1E F8 27 46 9B 0B 7C 64 93 4C 6A B4 07
 17 F3 49 C6 64 90 C4 EB FB 13 F9 42 01 0A 16 91
 AC 4B A2 A7 C8 48 94 12 A5 92 66 4C 28 08 BB 06
 8D 1D E4 C5 C2 E3 50 80 19 4D BC 10 72 46 29 BE
 A2 38 12 0F D4 78 6B 6A 0E 5C D7 00 16 7F FA 4C
 F0 88 84 D7 FD 06 2A BF 2F 85 D8 0C 1D 84 A6 F5
 AD DF C1 00 8B F1 BB 9F 29 6B D4 84 92 6D 03 2A
 14 59 6B 70 CF 8B 56 99 F1 4D 15 5B 35 82 85 41
 90 C7 C6 96 59 71 6E D4 6D A7 F1 AE 20 54 57 18
 FF 33 90 DC 56 E9 55 CE D7 52 D3 C7 99 18 1B 31
 83 84 41 9B DC 5F 30 4F 6C 46 A4 8B E9 3C 3E C9
 5E 2E F0 76 9F 8B 57 98 98 A7 36 CA 7C 31 1B 40
 2F 6D 9E 25 10 DF 2A A3 B0 7D 63 E0 68 C8 7A 1D
 69 B5 A8 DF 8B 14 DB 3B D5 17 49 D0 86 5A AF 47
 05 0F B5 FE B0 AE D9 23 A3 55 26 2F 43 DF 3C 73
 CB E7 7D F6 1F 73 2C 80 1A F9 B4 04 A4 70 84 DF
 CD 8E BA B9 9A 13 1C 83 D0 70 8B B8 A2 C5 5E E7
 79 F8 EA 45 48 D3 94 6C 8E 66 1F 38 22 6E 3A BD
 AA 8D 50 86 7E 7C A0 C6 7A E7 D5 BD 7A 70 03 38
 34 4B 64 58 1D 1A 1F 84 FB 2E 52 42 26 25 F8 AF
 A7 BB BB F6 91 A9 FC 7E DF F8 06 05 5F 43 EE F9
 ED 37 0A 4E A0 14 A1 9F 15 B9 F3 28 86 F4 C0 94
 FA 07 E3 8A 82 8A 2D 0D 0D 69 F7 80 A0 E6 EE EC
 C5 2F 3B FB 08 35 7E 73 3C B2 CD D3 CB 14 88 49
 63 3D 84 73 1F 0E 72 C0 6F 2E 4F 39 5F 4F 13 EC
 ED 48 27 F1 B5 21 AE 94 0E 0F C9 F7 DE 45 97 D6
 8B 1F D5 5A A2 1E B8 60 1F FD 89 BB D6 B6 E7 0D
 C0 04 D2 80 A2 71 8D 9A B9 34 70 C4 E7 A8 F2 6F
 E8 54 63 5B 4B EE 1F 90 85 EA 67 22 E3 3C F4 AA
 7D 3E B8 D1 E3 6B 05 E4 80 CA 85 93 C9 A2 11 59
 9A EE 96 20 8F F5 15 DD 40 4A C8 59 BF 8B FD 47
 86 DD 60 C3 14 7E 6C 5E 0B 70 CE 03 0C B9 66 E7
 B8 E7 4D 13 74 D7 13 DF 38 FD 93 01 20 B9 0B D0
 DE 60 0D B9 5C E3 1D 1C 97 4E B0 1D 9B 00 9F 08
 EB 0D E8 5B C4 DC 32 AD DE 5C 27 29 88 9E 96 84
 BF 43 64 8E 07 B9 7F 77 1F FB 43 87 15 64 AC 92
 A8 34 6F AD CC 9D 77 E5 50 4C E8 1D 2F 13 B8 B0
 78 95 3E F8 49 5A 44 A8 E7 D3 A9 11 1E 58 B3 78
 4B C1 B9 F4 A5 D8 6F 0C 80 05 31 51 26 8E 88 72
 FE 9B 55 58 4B BB 3D 42 8D 05 7C 17 68 3C F8 B1
 A8 46 00 69 A6 29 A0 2F BB 16 82 0B 53 5F 5F 0F
 97 7B 87 E3 9C 46 DE 80 68 7C 99 81 A2 B0 EC 24
 C5 4A 7B EF 23 EB 85 F2 06 D8 71 9C 29 C7 7F 43
 9D F1 FD 67 00 F8 21 DA 4C EF 34 DA F4 BA C9 73
 23 C6 C9 8B 4F C2 54 1B 84 57 2E B2 07 7F 54 DB
 DC 93 BF C4 E0 28 DC B4 51 73 34 F2 8D D4 85 AA
 85 C5 EE F7 EB FD 21 08 95 BB 89 2C DE D6 04 04
 44 60 22 1D 79 CA 49 89 7D DA C5 CF A6 9B 90 E7
 76 0A CB C8 FD D6 92 F2 67 86 50 D9 BF C0 04 2D
 16 7B 46 8D 34 DF F1 45 B2 B5 B2 4C 6C 9E 41 3D
 A1 77 EA 7E DF 66 7D E3 F2 E2 C1 D6 B1 78 28 94
 E6 DB E4 6D 32 60 CD 91 3C 20 13 89 B7 8D 7D 52
 84 4E BB F8 B6 00 58 3F 28 ED 73 EC D8 2D 0B B3
 4B 68 E3 A3 C9 DC 3B 3B ED A8 76 B0 8B 4D B0 1D
 A0 22 64 A3 48 7A 23 4E 22 4F 5C 0B 5A 81 B8 DF
 58 15 E6 BF CE A2 51 E0 13 35 1D 2C 41 C2 A8 E5
 33 2B 61 B7 9C 88 14 83 FA 8C E2 46 3C D3 1E 81
 6D 83 C6 D9 92 34 49 CA 3B BE 2D 4A B1 92 AF 8B
 BA 3D 09 4F 93 EF 8D 30 FF A9 7B 1D A9 D0 B8 FB
 42 63 77 34 13 F5 BF F9 DD 24 7F 1C 16 5B 99 6C
 FC F6 B6 93 9B B7 86 82 A3 BC 55 0F 2E A1 79 2A
 A6 AC EA F2 31 1A E2 71 C8 0E 7F 2D BE D0 17 A5
 C2 E8 A3 A0 73 D3 D5 7A 25 C8 6B B2 55 C8 FE 09
 A8 0A 3B 55 CA E2 4C 78 F2 91 40 60 3E 13 39 65
 E9 D1 7D A7 EC 91 42 59 B8 4C D1 02 61 34 9C 6E
 29 19 28 13 01 3A 3D A2 41 24 0F B1 B0 1D C1 FD
 1E F8 6B 29 E6 AE 82 9B 8B 65 70 EB D7 76 1F 92
 D3 56 10 DD 05 7A A9 9C AA 41 23 EF 75 8F 7A E3
 D4 0E E8 7F DC 8C 7B 77 69 06 A8 0C 1D C9 76 78
 99 4B FD 34 0A 88 F1 17 32 E7 56 97 3B B0 D6 63
 75 AC 36 E2 38 BA 63 7D 75 AE 6C 65 CE 2F E2 C2
 1B 73 BC C7 60 0F 93 47 D5 A0 51 F3 90 6D 56 CE
 19 8F 87 D6 6A 22 79 A4 3A 55 8D 9D 9A 4B 85 5C
 E6 30 22 F6 F0 3A FC FF 49 6C E5 47 60 69 1F D4
 60 3A 35 33 B3 EE 18 40 8B 1F 2C D9 B0 25 01 33
 E0 67 01 1D F2 A4 28 EE 23 C4 8D 99 81 5A 3F 95
 F9 4C DB EE 48 35 C2 00 00 81 65 25 49 CA 4C CC
 7D 0A 00 EC EB 13 DE 1C 3B BE 83 4F A3 DE 49 93
 AB 9D 10 15 B1 BF 7F 3C AE 3F 9E 08 14 A6 05 2B
 58 DD C3 DC F9 7F 12 B1 58 C4 C8 C0 24 57 12 C9
 FA 81 A0 79 73 9F B7 F0 91 26 E7 FB 28 AE 9E 6E
 85 44 C8 68 6F 60 FE 1C 5F EF AB FD 04 3A 1D D5
 2D DE FE A9 29 50 4C 50 E4 9D 78 FF 89 5C 56 5E
 CA B1 BC 2D 53 05 49 74 E0 C5 27 6F 62 65 E0 BF
 93 BB FE 32 A8 B2 3E 04 E5 44 C4 50 A2 E8 CA 77
 BC 80 2C E5 F3 E0 2C DF 56 04 2F 36 C4 88 C6 3F
 FB CA 4A 18 DA 3D 74 50 39 AD 5A 1D AA 07 4C 4C
 22 20 A4 78 F2 37 35 CF C3 C5 C1 84 71 98 68 40
 B5 AA 01 67 03 59 16 FC 47 5A ED 18 95 24 25 54
 3D 1E 4F 61 D1 CF 65 32 09 52 F2 2A 4E 87 B3 20
 2F 00 7B EA F9 C6 90 94 2F 11 E0 E9 B2 A1 F0 DD
 C9 44 A2 57 67 1F 97 88 5C 1C 06 51 B1 91 AB 4C
 AD 9D 34 AA A0 42 0E D3 83 43 50 E3 8F 76 58 D1
 63 4D 0D 1F 6C 77 85 35 D2 52 33 30 61 A0 10 05
 16 4D 5B 62 21 77 37 7E 65 B3 23 EC 37 C7 9C 9F
 1E 0C E6 26 5C DC 87 8B B5 0A FB CF E5 07 73 6C
 37 F1 DB E7 BF A2 2B 78 76 B3 7B AC 04 38 B0 71
 31 EB F5 6B 80 42 19 B1 5A B3 22 61 9C 26 48 40
 3C 78 E6 8E 83 07 89 88 6B 4C E6 63 88 EE A8 D9
 50 84 E0 D6 9F 5B 83 A1 D7 A7 C6 9A 14 06 38 A0
 14 B3 F3 A5 27 A0 F9 87 F5 88 DF 6F BE 15 D7 C5
 FA 90 40 E7 AD 99 A5 53 93 D2 63 1C 2D 98 AC 14
 C2 4C EF 04 4F BB 7D 49 F5 77 E4 F5 BC A2 DA B3
 53 8B C5 23 22 01 23 54 0D F3 2E 4C EB FF D5 96
 1C CB 1D 33 76 90 0D 0B 7D FF B0 5B 52 68 6F 14
 86 79 5B 1E B8 6C 01 67 03 0B D2 8E A7 98 AA 8B
 89 4A 50 0B B6 FC 0A AC E9 7C 85 9A 98 C2 B3 BC
 59 47 A3 83 8F B3 7B 52 02 08 1C E1 55 E9 B8 73
 E7 11 48 55 BB 60 D8 43 DC DE 39 AB 35 8C 22 A7
 3B 1B B7 F4 57 91 6D B5 0F 8B 99 7F 83 9D 8E 12
 0F 7F DD 18 4E 55 7F A5 E5 40 1C AB F7 38 80 4F
 F2 D4 F6 88 98 AC A8 06 66 BF C5 0C 32 80 6E D2
 3C 83 C0 6E E3 C0 47 21 7E A2 D5 94 90 1C 80 A4
 A2 C1 48 7C B4 C5 AC AC 18 75 1E 29 51 C3 81 62
 7E 96 F0 56 17 9E A9 2B AC 0B 0A 9D C1 F5 C8 61
 96 DA 00 E8 14 0C C7 50 E8 9F 4A 35 EB 2D 34 F6
 6A E6 82 6B 75 77 92 54 40 0E 15 1B 08 13 4A B6
 5F 74 7C 88 1B DE E1 25 3E E7 B6 E3 EC 61 6C 27
 90 28 C4 34 6D 31 33 87 BD 18 3D A9 7E EE 3A E3
 DB 9E C8 34 94 62 87 0A 2F 64 BF 09 6F 25 44 2A
 70 D8 59 57 7E 0E F1 41 00 2A 99 17 FA E9 D1 DE
 52 56 AA 9F A1 63 04 F5 C6 C9 95 36 DB 02 03 2C
 7B E7 94 04 06 D4 B3 84 A3 73 E0 43 77 51 4F 3C
 D4 9D 5B 54 C5 E1 98 BF D0 32 69 A9 AA BA 0F 56
 BC A2 8D B6 73 6F 5E 53 08 22 C6 AB 21 57 DD 29
 52 82 91 D1 D9 E3 15 94 96 2C A3 89 0E 08 D3 F3
 49 FA EA A7 14 7B 57 DC 99 53 0C 0C 75 03 A0 D8
 51 7E 27 50 21 62 A2 3C FE FC 4B 96 FB 74 03 6A
 61 D1 D6 B6 E5 E7 B1 EA 22 B2 3E 24 C4 5B 3F 02
 A7 83 31 54 3B 72 F9 66 36 C7 0E E5 DB D8 47 E9
 48 17 44 B0 DA 12 7A E6 D0 1F 18 30 66 6E A7 73
 D3 8B 25 78 8A 81 AD 95 8A 00 EE 66 35 23 3C A2
 91 75 9D 6B B9 FC E5 A2 50 7F 39 B7 67 A7 82 63
 3A C4 71 C1 98 40 B0 B2 A4 1A 13 72 A0 04 2D 07
 14 77 D6 AC 6C B0 15 67 F0 CA 5D 91 C2 5F 10 E7
 F2 A7 A9 EB 2B 4D 5D 52 61 0E D4 5A 34 26 D0 00
 DA DB 98 3F 45 E1 01 3C 35 B1 6A 53 99 72 79 E5
 3E 58 47 5E F1 19 AB C2 D7 A1 D9 C7 5C 0A 94 8A
 62 72 3B F5 7B 54 06 46 F0 DF 7C A8 37 7E D3 84
 2D 66 4B 76 04 A6 B8 46 40 F8 CB A0 E5 BC 7A AB
 56 57 AB 0C 33 8B FE C5 58 18 DA BF F5 0A F0 BC
 80 FA 7C 02 A6 42 0B CF 62 9E 3F 9A 7B AC 46 65
 B4 03 37 9B 3F 1E 18 AE C1 1D 2B A5 4A 8D FA E1
 B2 F1 AE BC 16 8B 68 80 CA 80 97 D0 AD 5D D7 F0
 FE B8 C0 B2 8C 41 03 4B C5 EA 58 76 D5 0C C2 60
 38 06 04 44 AC 95 69 29 FA F9 1C AA 6F 37 6C CA
 DE AF EE C7 AF C7 1A 4B 01 21 8C 07 6C 03 FF 33
 DE A2 D5 4D BA 6E DA 29 D6 03 FA A9 50 7B 58 C1
 BC E5 3C 73 E1 F6 D6 F0 75 A2 24 CA 62 15 B2 98
 1D AF 4D F2 96 5C E4 CC ED B9 6B 1D C6 58 DD 77
 26 A4 F6 14 B8 DD F9 50 F6 78 38 C5 0B 8A 63 CF
 70 62 D5 84 D1 C8 9F 07 1E BC E6 8C 0D 5A 98 71
 AB 34 DD 33 6D 0A EF AB 24 09 2C 3B AC 04 0A 9B
 92 E7 35 0F AD 9B AE 29 44 55 E7 A1 A2 28 2C 11
 6B 2B 13 4C 59 F4 1A EA 48 BF E7 E8 92 60 77 51
 F8 02 35 69 4C 26 95 BB 89 B5 4E ED 3E 8F 42 71
 77 48 26 FC 68 F7 28 69 11 FA 5C 38 E7 C2 8A CA
 27 C3 BF BF E3 A9 2D EE 71 CB 96 23 7E 97 3E 08
 81 6C CD D1 55 03 32 87 1F 63 0D 60 ED A1 C1 DE
 98 9C 91 29 8C 3B FA 91 21 32 8A 93 F8 56 A3 D9
 73 DA CF 26 5A 70 DA 69 50 32 B2 0C BC F5 7C 40
 22 D4 61 85 4D 31 41 20 24 03 75 97 6A 93 11 C8
 48 61 5D 4C 53 AF ED 01 8C 96 BB 22 F4 15 7A A6
 99 55 26 10 8E 12 41 5C AA F7 17 DF 74 CA 76 18
 FD 92 85 E1 8E 9F BB F1 29 A7 BE C7 C6 BE FF DB
 9A BA D7 8D E5 32 CB 50 BC CA 5A 0A 05 5C 49 86
 9C 9D 18 C6 20 DE 72 80 F7 73 2D 88 B5 B7 07 F7
 B4 65 96 20 D9 13 EB 29 AD 07 14 3C E2 D8 F0 96
 C7 3D 7A FE A1 EF 15 16 98 05 DB 5F 44 1E 99 E2
 5F 98 C3 D2 70 E1 4D A1 95 6B 91 FF 89 F6 A9 C5
 07 CE 42 A5 74 B1 27 76 27 A1 97 52 7C 61 39 F6
 AF F2 31 4A C4 F1 B0 B3 B9 F6 58 E8 E4 42 68 5B
 70 A4 78 88 45 5C D8 52 1C B4 A8 55 D0 82 AC C4
 D2 A1 BE 56 19 34 31 29 18 DC 86 FE F9 B0 B0 C7
 DF 8F D9 9D 0F B4 79 31 45 BC 54 05 FA A8 BA B7
 11 14 AC 95 87 3E 8B CD 1F 0C 91 A6 94 15 71 13
 D9 4E 40 BD 81 EF 57 D4 F9 06 7D 79 57 F5 6E 8F
 39 18 E3 DB 9C FE 00 FE D4 7A DB 4C D6 A2 6C 83
 9C FB BC 27 A9 84 28 1C BA F1 CB 3D 2C D3 DD FB
 70 E1 E8 77 F8 B6 56 04 FD 25 2D 1C 04 FD D7 27
 D5 A2 20 B0 F2 AD C8 CC 87 C5 10 F5 21 67 25 5D
 37 FF 7C 6F 70 0D 6B D5 50 72 26 25 32 4E B4 67
 20 F7 8B D8 92 46 29 1E 8D 68 CD 31 1B 0F 1D 8D
 F1 67 37 BC 57 80 0C 47 57 A1 2A D8 E5 19 49 9B
 39 B3 56 60 60 06 8C 12 FE EE 70 BE 73 8E A0 5D
 EC B8 03 06 1E 7A DA 0A 09 7F 1B 4D 9C 22 86 69
 BC A5 29 06 F9 33 76 85 6B A6 C7 A6 78 30 56 03
 35 DA C1 25 19 94 C7 82 4E 61 1B E6 69 2F BF F5
 9C 46 8C 94 02 83 BF 7B 34 65 E9 66 77 42 8A B6
 94 97 57 79 D7 21 78 57 3D BE 0E F4 53 1B C7 6A
 03 A4 81 A3 11 CF F3 17 0F 66 80 78 A5 01 5E A9
 2E 8F C4 60 BA 6E CB CF 48 4E 93 F6 F1 B8 C4 3A
 7F 21 83 77 03 9B 17 98 E4 BD 05 DD 58 0A C2 B4
 A9 0E F4 6C 33 78 74 9E B2 68 87 88 70 06 A2 5D
 72 72 DE D9 32 00 16 FC C6 84 9D 45 E0 A0 39 D7
 9B 4E C8 55 23 8F 2E 9D 6E A1 6A 02 3E 8C 6A 07
 27 4C 82 D2 A4 0B 40 83 76 FE C6 13 72 55 81 7D
 AA C0 A4 F4 C8 ED 07 80 55 0F 3B A8 9C 3E B3 AC
 A7 15 69 1C 04 83 CE 7A 8F 0E 6E F9 79 C6 BB C4
 4C 21 67 A6 C7 DD E5 1B A1 38 CB 00 BE EC A4 D8
 9C 6B D9 D4 5F 1A 84 33 54 DD EA 7E FC 91 4F 5A
 51 EB D0 82 26 01 57 67 81 DC E5 C7 F1 D5 3E CC
 6C AF 1A C1 04 53 CE 78 19 15 D5 83 D7 3F 3A A7
 C1 34 61 3E E7 57 C7 E4 00 C6 1F 6B 43 27 2B 88
 72 2D 89 81 31 AD 29 09 5F A1 1D A3 99 75 6A AD
 64 B3 B7 37 A1 15 2E CD CB 6B 82 8E B5 3A 64 5B
 38 4F 6E 17 7E F8 BF A5 7A CB 30 47 5B 4B F7 87
 D9 20 CF 67 FC 9A 1F C8 A9 69 BC C3 61 3A B6 CD
 39 F8 B2 56 CA 1B F5 0A EF 6E 75 C4 A5 EB F0 C1
 E3 62 14 9B F3 58 EC 35 10 83 3C 4A 4F 02 A2 9F
 8F 01 C6 DE 48 55 C1 B1 72 6A C4 DF 9A 9D FD DD
 3A BB E4 7B 82 DA D7 6B 0E A3 F6 45 39 13 9E 92
 E8 65 86 D7 05 9A 4A CA DE 5E 7E 0D 2E 55 04 C0
 10 57 60 72 97 5E 6A 99 DA B8 3A 22 FF 92 DE B6
 5B 29 D5 78 29 0B 73 51 0C FD 7D C6 E7 B1 E7 E5
 F2 76 5F 46 03 B4 36 16 32 45 98 50 21 3B 8F 1F
 C2 1F 6D 89 BE A6 28 70 A8 EB D4 BE 96 7D 86 45
 24 A6 15 CA F2 53 B8 60 5C 37 3B A0 8F 8C AA EA
 C6 87 2D 5E D8 55 B2 9E 30 9C 78 FD F6 AA A3 C9
 2D E2 71 F0 63 42 6B 2E 06 8E 46 E9 79 FC 67 8B
 8A 7B F1 70 9A F6 34 EC FC A2 F4 35 69 F4 EA 58
 72 F3 38 C4 BA 0A B0 2B 23 5B C8 EB 34 B3 79 2A
 9C 81 4D E6 22 02 B3 7A AB C6 CE AE 48 27 3F 85
 74 FE BC B7 60 D5 A7 F5 4E 27 86 65 D8 4A 4C D6
 EB A4 A5 0C 05 DC 2E D3 60 F1 7D EB AD 01 C1 22
 1C 3E B1 87 37 8E 8B 48 49 F2 AA 2B F2 2B A1 01
 8E C7 C7 3F 99 FB 6F 47 CB D6 A6 3F 64 59 7D 86
 47 F9 F1 D3 CD B7 12 FD 53 68 AD 92 1A 69 FA 19
 8C 68 46 2F 64 FB 43 6F B1 C2 AD F4 73 08 63 BD
 51 39 6B 66 F2 CD 3A 80 9A 60 BE 27 26 F2 60 B5
 58 1B 82 8A 02 C9 03 03 E3 8C 3B 50 99 5C AE DA
 DC E8 E5 A0 A2 36 37 6E 0D 9E E6 44 B8 36 2E 50
 2C 75 52 F1 3D 5F 83 2F 78 3B BC A3 07 EA B5 EC
 D1 C8 3F B9 91 3E F0 D4 84 A8 C9 3F EA 69 32 25
 C6 38 8D 9E 99 8E B2 60 8E E0 93 15 E6 69 F1 9C
 9A A0 F7 E9 9A 76 D9 BC C7 FE 1C 8D A5 87 DA FB
 FC 83 B4 04 30 0E B6 83 65 9D C4 CA CA 71 E0 98
 F0 AC 49 D6 3C 5C FD AB 09 36 55 8E 33 8E 35 2D
 55 87 3D 36 4E 96 97 DC 87 65 F1 1E BB 93 76 53
 D0 EF 9A 0D C9 55 EC 79 93 63 DE D3 5B 5A AE B5
 92 20 0D AF 54 4C 47 F5 EA 53 8F 8D 56 AD 9A 02
 AB 3F 04 29 07 5E A8 7C 21 01 87 D1 B5 74 44 86
 7C E0 DF 00 C6 9D F8 2F 63 79 13 FF 7D ED 19 22
 5B 01 A3 10 6C 21 EB EC EB 0A 3D 65 CB 54 25 8D
 FF 15 A9 73 4D 07 9E 40 5A 58 38 88 42 B8 8A F4
 E3 C2 CC 84 13 48 3E F9 00 12 96 6B F5 4F 5B 40
 31 D0 9D 83 65 45 EA AA FC B4 65 E3 5A B2 90 0B
 87 A1 C7 54 41 DF EB 2D 25 19 51 AD 08 2D 3F 76
 9C 19 27 95 9A 3D B3 4B 03 9C 1E 94 C9 75 2C 3F
 03 10 65 30 05 80 A6 9E 16 3B 55 19 5A 09 A4 EB
 B6 08 3D D3 3E AB 52 45 B0 2E 02 02 91 9F F4 FF
 ED BD C2 CD E5 89 15 16 65 23 27 0E 88 59 1D 2B
 75 ED 0D DA BC 3F DC 7D 93 18 46 7D F5 75 5E 0A
 1D 7B D6 B5 CC CE 64 84 56 DB E5 52 80 E5 6E A4
 6B FB E9 47 28 E8 FB 10 95 EE 7D C3 D0 54 4E DF
 28 5D 7F 7D 85 D9 7B E3 55 F9 0E 78 B3 E8 70 EC
 95 AB B6 00 41 3C 37 29 6B B6 F7 62 D8 4C B9 E0
 C1 2D CF A2 88 FB 3C 32 9D CC 96 89 02 AB E9 42
 E0 8E 20 64 3F CE 0F B4 FB 60 73 9A FD E7 EB F0
 60 95 EB 2C CE 99 61 7B C7 37 DC 85 6D 65 31 C3
 AF 0A 74 00 88 86 B6 9C 14 1F 66 28 06 D4 37 01
 B6 1F D4 61 EC 2C 2A DA C4 E6 55 51 EC E2 D1 93
 2C 47 B5 FA C9 DE 18 9E C6 E9 BF B8 AE E1 F6 BD
 D8 25 FA AE DF F8 D7 46 01 08 4A 44 BE F2 66 D4
 74 3D 11 6F 56 2A 1F BF 88 CD ED D0 B8 E3 EE 35
 3A 01 53 62 23 68 A8 B0 3A 97 80 45 4C 97 CE 72
 57 CB 37 CC EC 20 A2 F4 87 EB 9B 95 29 C5 FF F6
 00 40 1E B1 9A 80 F1 CF DC E1 78 A3 8D C5 D8 17
 B1 4A FD 74 92 31 2E 29 D4 1D 62 74 3E 04 70 89
 3D 04 5B 6F EF ED 9D 32 1B 19 40 A6 68 2F 1E FC
 75 4B B6 35 DF CB 0B 61 24 60 81 CC 9F 1A 78 17
 BA 6A 77 0B B3 08 50 34 BA 34 EC 8D 53 01 4C 9D
 BE 32 4E F6 D3 DB C6 4F 75 2B 0E 2C 2C C5 D0 BD
 CF 4B 3D 26 10 76 C0 78 60 3D C6 FC D6 B4 5B E9
 5A C9 5F 70 58 70 7A 36 DB 2B C6 0B 48 C3 D8 59
 C1 8B B5 01 51 FE AC F9 2D AF 40 D2 BE 2E BD 55
 2E 75 E3 04 CB B9 71 46 93 A9 F1 0B F3 FB 40 19
 6F 58 83 9C 46 B9 10 36 BD 32 45 E4 1F 3D 26 45
 2A C9 EE 82 89 B2 7C 04 60 6B D6 9C A3 5B 9D F6
 BD 34 24 10 80 97 73 51 BC 22 8D B6 BB 1C 38 69
 F0 0D 15 79 07 CC A5 ED 9C 10 62 EC C0 39 B5 5B
 51 08 68 56 04 A8 71 3D 64 44 EB D7 F2 03 B6 D6
 DF DA AF 13 44 E2 67 7A DE 51 D3 9A 30 04 5A 6D
 F4 A8 28 14 39 31 64 C0 A2 B1 87 30 E6 26 43 0B
 12 EE 50 27 E0 80 4C 29 B0 31 35 E9 CD D4 48 F6
 2F 8C 3C D0 0D 97 F6 0F 2C 39 BE C2 C2 F2 31 5F
 23 8D 2E 5C 70 E5 E6 5C DB 69 ED 68 DF F1 68 F3
 27 E1 43 0F 25 9B 37 0E 9F 57 3B AE 66 14 00 84
 EE B0 0B 73 E1 D6 8C 6D 92 99 A7 E8 B9 11 9F 6D
 2A DC C0 1F 9D 6A 89 63 C5 64 45 B6 63 E9 CA 59
 8A 3D 53 95 1D A9 22 82 E9 13 BA 61 E0 91 58 B7
 D8 1E 8B 8C 47 AB CA AC C5 92 BA 83 68 6F C2 DB
 C3 70 98 4E EB 0E FD 67 14 10 E8 E3 BC E9 F6 3E
 FE 82 61 34 87 75 C0 E7 2A A2 39 67 E9 42 3E 1E
 FC 8D A1 B6 5E 95 E1 3C 55 AE 7F 70 2F 4C A9 42
 7A 4C E9 BF 1A 5C 60 91 62 A2 FE 21 51 7B 25 C4
 F2 2F 5F 2C 16 51 9B 39 0F 64 52 D3 58 5E 58 60
 46 76 33 07 00 BF D6 61 DC A6 2E 5F BF EB 8B 9F
 D9 E8 CB 6C 99 98 63 A9 72 D8 6F FD AE B3 9E 7D
 E5 77 AA 42 6F E6 87 01 34 54 87 97 DC 12 3A 4B
 87 FF 6A 4C 49 BD A3 9A 89 BE 7D 7A ED 32 B6 C1
 B8 00 DA 4A 86 CF 5D A4 4B 7E 28 20 B6 19 84 38
 91 AA 15 6E 99 64 B0 7B 98 27 C1 C9 25 6D 8D B9
 A4 3C 0E EC 2A AD 23 24 D7 DE 4B CD C3 FE 1E BD
 66 F5 14 2A B9 E6 11 37 63 BC B6 0A 19 25 DD AB
 CB 62 F4 8C F9 D2 BD 8A A8 FD C4 36 5E F1 13 F0
 CB CA 4E 21 53 2D 9D 6B CC 9E 97 5B 33 77 F8 DB
 DA 8A FF BE D4 4F 7F C6 A5 88 C8 E1 A6 76 A4 06
 0C 09 DD CF 93 EB 4B 3F DC 0F AE A8 3B 02 B4 10
 6D E8 8C 2A 1E D6 49 FD 6B 00 61 64 13 61 8A A3
 53 7F B2 CF 77 80 79 23 E2 9B 3D 98 EB 97 00 CF
 77 53 80 6D 09 A5 AC CB F8 13 0C 6C 79 8B 36 72
 22 A2 60 46 F0 D0 7F CB 6A E0 56 C5 5A 9C 5A 10
 A3 90 91 B4 50 E7 C4 49 CD 0B 1D 3E 61 9B 27 F3
 9D AF 77 1C A6 55 3C 42 B7 98 71 87 41 57 B5 40
 F1 D9 DC B7 40 44 72 25 4A 4C 5B B4 F5 14 D8 DC
 90 F0 9F F2 9D EB 46 52 47 71 C1 16 BA C7 C4 72
 47 64 71 33 C2 98 41 60 A2 06 5D E5 2A 64 EC 85
 DD 59 16 3B BA 09 9A 77 04 C5 76 EB 94 F7 A7 A4
 C2 6C 03 86 CF B2 66 18 7D F8 79 9A E7 7D 8A 9A
 92 81 2E AC 64 31 A9 5A 74 A0 F8 96 64 FC 78 A0
 AE E0 C1 0A DD FD 87 47 5B 90 1E 72 1E B4 5F EA
 C4 C0 73 BC BA 0D C4 A9 8D 9C 8E 99 EC 40 AD 35
 2C 5F BF AE 82 4A E4 E1 85 3D 62 F5 9C E3 15 24
 2C A8 19 AB DC 01 94 26 E2 91 10 63 06 60 A3 56
 6A E1 52 19 2A 34 78 5C 67 9B D4 58 30 B6 C9 E9
 03 AD C7 29 90 66 97 ED C3 FC F3 39 56 4A F1 07
 97 6D 71 6B 1D 4C 96 73 10 E9 8F 28 E3 DE 50 10
 2C B4 6D C6 91 62 39 3C 21 30 B6 DE 9C 14 AF D9
 40 7C 6D BB 09 22 C2 77 7E F1 78 7D D4 33 55 84
 34 B3 DF 82 DA 3B 2A 47 2A 26 BC EA 58 82 EA 1A
 CF 5D A1 49 A9 C1 40 20 FD 79 D1 0C 62 B5 A6 37
 60 0A 01 19 8E 87 C9 86 64 43 B0 FE B6 CF 4E 62
 34 9A 63 6F 52 9E 5B A5 C1 0E 92 17 DD 20 22 71
 3F 14 46 1B 37 BA 8D 0A 68 C0 9F 76 34 26 18 5E
 03 6A 76 71 02 2F 82 ED 89 A5 AB DD 77 55 B7 D8
 31 40 87 D3 41 E7 86 AF 97 BB 17 70 2B 7D 3C BC
 59 4C 93 BC 87 CE F8 AF F0 57 12 3E 06 87 64 28
 7E 38 10 42 89 0A 3C 1C 07 41 EC 9B 10 57 26 BE
 A3 34 27 58 01 16 68 9D FB BC 10 14 36 63 7D D8
 EF A5 54 14 B8 9D 21 A6 13 1B AE F0 C5 85 C8 84
 91 27 B2 7A 80 38 1B 6D 67 2C 27 84 1E 1D 82 5A
 AB 8C 5E EA BC 18 5A 22 9C CF 45 A8 A4 D4 D7 9F
 FB E3 DB 64 C1 E5 E8 80 3E 8C 9F 7C 98 57 83 81
 B4 21 50 8F BE BF 07 8A 44 1E 6D C3 C8 1D 4A 65
 D6 C5 F1 72 B4 8C 21 73 2D B7 F6 3D BC C0 1A C0
 91 B2 A0 57 1C 74 8F DC B6 32 4E B9 F9 FF A5 88
 B8 E3 B3 3E A7 FB CD 26 FD A1 83 24 19 62 84 55
 96 B2 2E BD C8 BB 06 55 DA 48 5E B6 62 07 0F 1E
 11 26 93 66 CE FA E2 37 B4 F5 D8 1D A2 3E 03 D1
 E0 3B DE F6 5E 76 29 13 5D 8E A6 4A 01 1E 0A 9E
 59 8D 8A 1B 03 5C 7D 17 69 1C F5 B3 34 15 54 2C
 59 13 26 59 C1 EB 7A E2 AE 85 18 6A 7C FF 37 53
 2A 7E 5D D1 19 4D 59 7B 2C 07 D0 FA 9F 23 8D F4
 D8 4C E2 BD 16 AF E5 0D 59 52 74 0D 08 63 D1 D4
 C4 CA E0 89 BD 2E 9E 18 8C 27 3B 35 3C A4 6B CE
 5A 9A 66 DC 94 09 FD AE BF 76 4A 12 0E 0D 3A 8D
 88 EE F9 F5 1F 9E 70 7A E2 C2 4D F6 55 5E 7F 69
 A1 C9 FA C3 9E CE D5 1D 89 97 CE C4 C4 33 49 E6
 EB B0 7A A4 8D 39 C2 F3 C6 8A 0C 01 06 6E 55 E4
 12 5D 94 86 DC 5B 70 91 20 C4 EB 7B 56 40 09 8B
 2E CD E5 9A 28 99 F2 6E 4B BF F7 74 53 4D F1 66
 0F D3 C9 A7 76 B8 61 95 1C 81 F3 E1 B0 7E 99 1B
 66 D6 0A F0 5F 2F AC F0 AC B7 03 78 E9 3A 80 FE
 52 7A 10 CF 96 9A B5 A2 25 9C BC 73 17 0A 77 95
 AA 14 91 C5 89 FA C7 87 59 FB DB 14 78 F4 E1 1B
 E9 83 58 6B C7 FE 0C 83 9B 5B 93 56 D8 49 CB DD
 88 86 D9 93 25 46 AE 26 1E F0 40 A1 55 B8 59 A5
 2C 9E 1B 03 A4 D1 9F 4C C7 FF CF 07 86 8A AD 7D
 CE 86 09 67 90 68 41 AD D6 81 90 48 3B 61 B4 2B
 92 05 79 5C C1 4C 21 0B 6B DE 19 64 A6 1C C9 21
 0C E0 2C 59 F6 5E 67 EF C4 F8 F8 07 F2 F4 A6 9F
 99 5C 95 52 18 9D 1D DA 52 B2 DC F8 90 CE 74 F9
 01 67 CF 98 66 90 CA 82 61 70 E3 FF 23 95 CB 8F
 6A 47 59 E5 30 05 5A EF D3 44 0B FA A2 6D 85 C9
 C9 6C 18 1A 2E BC 3A 35 F0 DB E3 7E B0 34 EC 3E
 23 53 04 5D AB 03 D9 9D E2 A2 31 7C A0 60 67 23
 CC 99 2A C6 67 73 57 58 7D 9B BF 3D C0 14 23 DA
 CE 51 95 CA 44 FC 42 D2 CC E8 1E 15 DA 43 A0 BD
 C3 9C EE E7 9B 59 22 42 A8 1D 36 F8 8C 8C 51 D3
 54 EE 87 67 A5 47 F3 69 99 74 DC A3 7D DE FF 46
 61 2D E1 DE 95 6E D3 0A BB D0 27 7D F2 AB 89 AD
 7E EC 39 48 37 A6 0C 26 97 19 E3 88 E6 8F 0E 9D
 10 F6 E0 C5 C9 D0 EF F7 EC C7 D0 1A 8D 65 6C 95
 9A 9C 24 A7 D2 41 97 8B E0 D1 6A 91 1A DA 1E 70
 AC F5 3D EA 7E 1D 83 6C 16 29 25 D5 18 F4 A8 CC
 BD 21 E6 64 F6 CC 1A B5 87 B4 21 F9 22 95 D4 02
 6F 34 EC A0 38 D6 CA B0 95 86 F0 5F 11 82 2A 85
 43 1A 3F 4D 83 C7 28 6C 86 0A 1C 98 26 F8 3A 64
 B0 68 E2 F3 F4 C2 3E AD EA E5 D1 6D 01 40 29 87
 DA 64 44 F8 DA C4 A6 1B F3 6A 5C DA 70 C2 CF A4
 80 E0 A8 E2 10 AF 5D C8 DE CE 77 6A 33 E3 B8 37
 3D 7B F7 32 24 12 8B C9 E0 A8 47 FE 14 19 12 74
 05 63 C0 D2 56 67 52 95 8A 9F F5 83 55 7B 94 07
 6B B0 62 A5 38 7D 46 D6 3C A3 86 16 CC 60 C5 A8
 BA F4 DC C7 15 AF 81 0F DB D2 0A 6F DF F8 23 33
 E9 33 B7 19 24 5D 07 35 31 7A 5B 54 AF 24 EF 31
 2F D2 02 07 F8 CF 64 BF 0A 0D 8F 3D A4 4C 28 1C
 1D 08 8D 7F FE 9C 1C 56 6D D7 D3 0E 74 73 41 F1
 1A 35 63 21 77 A4 2E 4A 3E 51 71 CB E0 DD E3 B2
 A9 7E 39 C9 24 45 D2 F4 4A 16 EF 31 8D B3 D2 FE
 B9 14 CF 18 F5 ED DE A5 40 60 62 E8 F2 62 FA 68
 85 77 0E 83 E4 14 91 AA 5E 35 38 62 C3 58 94 67
 FF AF F4 1B 86 1F D7 E3 83 C3 76 D6 12 24 7E 47
 DF 10 97 55 5E 67 AF 0D DC 98 59 C2 70 BA 20 D7
 FD FB 72 7A 31 D4 F8 C2 28 D5 5D ED 52 37 D4 80
 AD 47 B7 FE C6 AC 5F DB
* End 3204567093 3476628271