* LTspice Encrypted File
* 
* This encrypted file has been supplied by a 3rd
* party vendor that does not wish to publicize
* the technology used to implement this library.
* 
* Permission is granted to use this file for
* simulations but not to reverse engineer its
* contents.
* 
* Begin:
 5B A7 65 E2 47 27 8C AE 81 D9 83 24 79 78 0D 70
 02 9D 83 88 0C D3 BC 45 4D C6 C2 2E 71 0A 99 89
 48 DB E4 46 49 FC EA F4 3A 70 F7 60 03 A6 95 39
 00 B1 41 4E A0 5C 34 1A 08 1D 7D 09 6F 84 F5 94
 8F CB 3F 7B 74 07 E4 B2 07 59 BE 04 F0 FE 03 3F
 1C 82 26 21 40 6C CC 1F C4 B1 E3 5B DF D2 D1 CA
 1D 7B F0 D1 E4 D7 FB DE CB EA CE 18 A8 B1 85 08
 3B 00 D5 0F FD B5 42 1D D6 9D C7 71 F3 5E 4A DC
 5E 0D C6 56 A8 D0 99 72 A0 24 42 49 D0 C3 55 53
 80 5A CA 16 8C AB 21 C8 76 AD 13 B6 2F 15 5E AD
 4A 22 57 15 00 14 33 92 22 00 FD 28 8D AF BE 11
 6E 07 44 0F 55 99 49 FD 10 A8 BF 6E D7 92 24 92
 DA 87 C7 5B AD 71 25 23 1C DC 1C 71 E2 6A 87 E8
 8F 06 77 3C 85 56 8C 98 8D A6 A2 04 0B 15 4A 2C
 0C 75 20 2A 12 26 83 15 39 A4 0F 97 75 B0 33 F7
 3A 5E 0C 70 ED 79 14 AB 41 17 C3 6F 05 35 A2 43
 F4 D8 E8 28 06 61 E3 5F 47 62 0A 7F 02 8C 67 09
 4F D2 3D AC 11 DC AD 13 D5 64 46 9A 32 45 66 2D
 20 7C C5 68 1F 35 0B AD 04 79 BF C7 E6 EB 8F F8
 4B 54 59 B9 C5 88 7B A6 47 F8 24 1A 1F 2B 01 9D
 FF B2 E6 55 66 9A 1D D0 60 CB 33 35 22 E3 DF 36
 17 40 CF 86 2C 09 08 70 E5 50 5D B3 B5 0E 3D ED
 BB 00 08 3F 98 42 63 F6 13 72 1A 1E A9 79 F0 32
 DA C7 B0 D6 BD 7C 49 DD 55 D0 DD 26 74 5A EC BC
 ED E2 E1 05 38 8A 4C 0C F3 D2 78 5E 2C 66 E3 96
 F6 B9 D1 C2 BF 76 C0 A0 94 02 EF 25 73 64 A8 31
 38 C4 9C 77 C8 85 17 67 6E 0D FE FC 49 B6 46 2B
 35 9A FF A4 7C 1D 16 32 D8 6F 1D 57 61 19 FD 35
 4A 06 A6 A3 5E 46 EB 72 B1 0B 17 B0 78 4E D6 A2
 C4 6C 4F C9 27 14 4B 34 4E EB A4 84 70 9B 94 B9
 E9 CF 39 C4 0D F4 DB F5 ED C9 2B 1B A4 D8 0D 45
 17 DA 9A A3 C8 49 0A 3A 73 4C 82 DE 7B 7F 33 D4
 26 D5 67 92 7D 70 AC 41 A2 29 3F 2D F4 F2 99 75
 A3 3C 96 70 03 1C 54 AE B7 B2 B2 BB 6B C3 97 67
 50 24 4B 0A 81 49 07 AD 26 DD 65 5B F0 10 68 71
 9B 58 BE E9 0C 82 8A 96 38 1C DF D2 46 8D D7 E4
 1D EB 83 C6 58 F0 5F E4 CB 25 37 73 43 1E 9D 62
 8A 96 6F 5B B7 FF 7F 26 31 68 FE A5 1E 43 66 3C
 B3 14 07 0D 91 69 78 E9 94 00 91 FB A3 64 45 59
 CF 79 11 FB AB CD AF CC F5 57 D8 28 3B B8 FA 52
 0A F3 95 E9 A4 DD C4 BB 9B 84 E1 AB 20 18 AA 5F
 76 14 29 1F D6 ED F9 7C 77 2B DE 29 9F 4F A7 18
 5E EA 9A 2F B9 79 57 34 C7 93 80 59 87 8D 22 CC
 82 C4 35 B0 FA 08 E8 4F D2 D8 3C 39 7D C6 B6 FC
 DD 25 E4 FE 91 34 4E 30 86 7C 43 C8 F7 A5 37 F1
 47 49 0B 7C 46 DA F6 D3 07 F6 98 A3 B8 06 D9 AF
 F3 DD C4 74 EB 6F 61 4E 61 91 96 C6 CD D5 7F A7
 75 C0 1E 94 7C 8F 69 11 60 88 6A 64 1D 14 31 61
 84 E4 5D CD 4C E5 59 A3 16 DC 01 3E F1 AE CA 52
 F3 61 0B E5 D2 D6 56 81 2E EC 39 A6 F3 BD C9 56
 E9 D8 81 59 BE F7 0A C6 F6 0F 7C 7C EB 66 A0 17
 E9 81 00 79 EF B1 16 A8 AA 05 82 C2 6E 3F 5C BA
 F4 CB 6B F5 48 96 F9 32 56 38 FC 6F D6 EA 61 E7
 37 94 66 7F 74 7E 0E E7 DE 97 EE 44 26 3E 0B D6
 44 56 2D D9 33 FC 5F 4E 38 F0 86 F4 9C 28 37 2E
 CC 19 E0 F8 85 D5 60 3A 7B F2 77 69 3C 0F A3 E1
 FC 95 F9 63 3D 33 F2 12 D4 1D 53 E8 5D 50 B3 57
 4B 80 CA 28 D0 2E 29 33 88 33 8F 4C CC 97 F7 45
 82 13 A0 4D 55 FF B9 E4 97 76 AC D7 B1 01 09 CE
 77 BC 1A 92 03 E7 A2 26 18 9F 04 0F 2B D7 2D 29
 9D 47 40 48 3C 22 9F 00 D5 19 E1 8E 3E 6B 41 08
 C4 5A C9 14 0B 77 33 B6 C7 8B 07 BA B7 39 44 51
 A5 D1 87 41 5C 00 7E C8 8F FC 1C A2 59 A9 DD EB
 7D 38 07 18 4B 35 7C 7B 9E CF 7F 70 CB B9 B1 D5
 7D 51 B9 43 52 5F 55 A7 F9 E4 11 C4 B5 F4 54 4E
 EB D0 62 81 09 8E BE BC 5E CB 93 6F F9 A2 D6 DC
 4F 64 AD 17 51 2B 1F 21 AE 01 50 C1 AD 70 DB 8B
 41 9B 3A C7 28 12 3E 47 50 F6 D2 05 33 DD 86 53
 18 31 11 EB 46 97 C0 BC 8D 85 42 9C E6 D0 B7 85
 48 7B 7F F7 88 64 86 F8 40 B2 69 56 90 88 F4 83
 66 6F 6D C9 53 82 C4 A8 13 7B C6 63 06 1D CB 63
 01 74 1A 1F C1 E2 98 F6 85 F3 55 49 66 F5 09 DD
 C2 A1 7C 12 5C 84 BC 27 56 0E 69 14 11 E9 F0 2D
 77 35 84 B0 B1 F5 B9 33 11 9B 1D 37 58 57 3E 4A
 EA D0 CC 6D 51 66 D7 7E D6 73 AA FB 69 DD 0E 82
 83 42 41 B9 BC BC 25 26 66 45 B0 A6 1F 5C EB 8D
 9F 48 48 7E 85 20 8D 98 EF 3D 2B 1D D1 3B 5D 15
 9A C3 30 70 45 64 8D B4 61 EE 25 2E FA 15 3E EF
 34 C0 48 5E 06 66 EC B8 26 1F E4 35 34 FD 2E 23
 C9 E8 B8 F0 67 59 6F B9 F4 EC 52 C0 F1 04 84 79
 60 43 56 38 60 6D CC 7F CC 36 16 13 48 15 EE B3
 99 2A 0B 8D D6 7D 02 D1 97 7F 67 43 6F 6A 09 CA
 D2 84 DA C4 C0 92 FA 61 39 99 99 FF 04 1C 76 E1
 95 8A 27 39 8B 98 A0 84 D1 65 38 DA A5 6D 82 69
 18 64 6C 7E E9 E2 C4 66 DA B8 7B E7 6D 76 A3 04
 8D B1 4C D1 92 08 7F 0D B7 99 9E 3D ED 98 49 A9
 6F C3 A8 3A 90 3B 14 36 2A AA 35 40 B7 F1 7A 0F
 0A 1C F5 07 6C 89 23 93 92 26 AB A4 71 2A BE B8
 B7 E3 0C 8C CF 39 5C CF 67 79 E6 5F BE 73 D5 49
 F5 BC 0F 12 2B AA F5 91 6C B1 20 99 62 91 D0 22
 BD 08 B4 38 4D 8C C6 EF C0 76 09 89 E8 24 37 B7
 2F 61 D2 D3 64 44 E1 BD ED DB CD CB EE 87 99 B1
 23 7A E9 D0 FC 06 7D 93 5B 32 F6 B2 64 08 A3 07
 AE 5A 84 AB CB BA 0D C7 F2 C5 1B 9D DB 68 9E 40
 77 51 B4 5C 4A FC 40 D1 12 1C 73 7E 09 DA 29 F0
 FF 6F 89 DF 06 4C 90 0A 81 A5 FF 6D EF BF B6 A2
 18 BB FF 75 24 E2 A8 38 FC CC F8 97 82 22 10 33
 45 50 B9 37 30 FB B8 84 9F 00 5D 0F 74 77 86 54
 AC E5 E2 CC A1 65 64 2D 1F 02 92 A7 75 57 BB 01
 D3 80 69 A0 B3 D3 A3 7C 05 A3 E6 3C E4 96 9F 1B
 E4 16 B6 5A 3B AF 4F 37 E8 86 20 EB BF 4E B8 D5
 B1 BD 03 05 97 62 08 3B BD 61 80 35 1E E8 B7 E5
 89 BD 9E 08 1A 0E 9A C1 83 3C 24 89 82 73 83 2D
 58 0B 73 1E FB 44 BD 04 D1 27 66 5A 68 83 67 13
 62 7C F2 57 21 4E 80 07 0C 66 DB 06 96 1A F0 4A
 47 E5 85 C1 83 D1 9B 7A 8C D2 AA 41 D5 B1 43 C9
 37 05 EF CC AE 62 51 46 B1 5B 33 6C 4B EF 66 CD
 C1 BD A4 75 18 A6 40 5F FF 6B 56 1C 73 C8 E7 D0
 C1 BF ED 12 C6 0B B1 70 35 06 76 C1 C3 4A 16 C4
 46 6A 22 22 40 D7 EC B2 35 19 8A 14 FF 89 DD 6F
 83 8B 1D 11 BE 1D 7F 91 62 F7 C8 D8 E5 23 B2 4F
 68 04 8D AF 6B 70 B7 0C D3 83 7F 22 1A D4 4C DD
 C8 A8 56 EF 08 87 45 57 6C FC 0D A3 A2 44 2D DC
 F6 8E 7B 78 10 A9 E9 B7 A9 2E 37 5E 28 66 11 8B
 62 9B C6 D1 58 39 8B 3B 40 6B C5 E6 BA 0F C6 58
 65 87 A8 CC F3 8F 0A 7C EB 8D 4C 44 20 09 F8 FE
 80 1D BB 5D F3 14 06 20 82 C8 FC 99 19 FF 94 B1
 37 E1 F2 35 F4 55 44 34 D7 AE E2 77 4C 1B 97 B7
 2F 67 D1 81 F4 F5 F3 52 33 E9 5E 8C 8E 60 E0 0B
 6A 4E E5 19 8C CC 20 0A 20 A7 78 7B 4C 00 B0 BE
 3C C9 68 2B 1F 4A E7 8E E1 63 10 EF 4D A2 86 9F
 BE 3E 6F 07 65 49 18 5D 92 0D A5 4C 01 DC 5D 43
 1C E0 80 46 01 7D 58 FE 79 A8 38 4B 7F C6 D1 FA
 1A 8A F8 06 86 BD 0C 89 BA BC 9F BB E1 38 88 1B
 91 3E 87 9B 8A 55 91 A2 25 B6 29 8B 33 A5 62 3F
 89 FA BA F0 EF 9B 89 C1 1B 7E 1F 61 1C 96 8B CD
 80 0F 47 7A E8 D6 A7 1B B8 DC 61 E5 CC D4 1F 7D
 53 DA AB 4F 9F 55 5B 0D 6F FA 45 DD 46 8A 4F 09
 31 0D 66 92 0E EC 63 96 56 01 69 AC 0D 30 AC 39
 2A 6D 2D 16 D8 9F 52 C0 A4 E3 82 47 A3 71 0C 07
 25 AE 68 58 F3 02 CE C1 A2 1C 9A 26 09 86 A2 66
 EC 3C 68 2B 80 EB 9D F3 AA 77 BF 83 25 7F 56 D0
 34 30 D6 62 4F A0 10 36
* End 3787380922 1919308671