* LTspice Encrypted File
* 
* This encrypted file has been supplied by a 3rd
* party vendor that does not wish to publicize
* the technology used to implement this library.
* 
* Permission is granted to use this file for
* simulations but not to reverse engineer its
* contents.
* 
* Begin:
 DC 34 49 50 41 D2 36 2C 52 BD 20 F3 C1 1E 74 D3
 F5 88 C1 51 75 D5 3B 99 C4 D4 04 92 DC 18 C8 8A
 04 17 E7 58 8D 0B CD E2 EE 25 4E 15 5F 36 C8 75
 0C 8A FF D9 30 28 0D 9D B2 EB 61 A4 F5 57 88 47
 9A 2E B9 F6 5E 42 57 ED 3A 16 88 B9 C6 08 6A 5E
 03 DD 79 11 83 81 0B 21 F2 A4 94 93 46 F7 38 E4
 9C 18 30 EB 3B 8B 9B 1F 3D BF 3B BF F5 90 83 06
 38 AC 88 B3 8E D6 75 A1 31 A2 72 70 02 6C 79 5A
 A8 28 40 97 7C CD F8 30 A0 4D 89 00 85 FA FD 2D
 41 A9 9E 9F D8 79 64 AD DD 89 C5 6E FA 3F FB FE
 B8 D2 6B 84 F6 67 57 0B 7D AC F0 68 D8 6F 23 81
 3F 44 EA CC 72 0E 28 AA DB BF B6 74 52 14 8E F2
 F0 FF A8 35 7B D4 73 2A AC 69 48 D2 E1 06 38 09
 B5 D3 21 BC E1 10 C7 AB 2D 67 1B F6 7A 0D 2B 37
 E5 BA 61 3B 31 F6 D1 50 54 EE 81 2F B6 67 FF A3
 D4 5B F5 09 A2 FB E7 30 EA DB F2 2F 52 FA 2F 28
 0C 75 5C DB 0F 51 16 25 64 E4 5C 7F 73 1C AB 3E
 E2 48 20 29 25 EA BB 5A ED 4E A6 5C 7B 1A F0 CF
 37 DE 1F 54 F3 C4 A9 02 72 41 F2 9B 10 0D 82 DD
 CF 0E 09 59 37 06 0E B4 53 08 F4 BE 8F 56 19 A2
 65 51 DB C8 D6 99 3E B7 F8 3F 96 53 AB 15 FE 58
 2F 4B BA F1 8E 5D 8C 01 51 C3 80 A0 8B 97 73 DE
 DE 68 E4 F2 41 16 A7 A5 4B B5 4E B7 C9 FC C4 01
 2E B1 DC 55 FD 79 ED D5 59 5B 6C 73 AF 0E 39 C0
 46 87 AB 40 5A C6 12 30 7D A7 8D 2E D5 D9 8E DC
 5E 91 02 84 FA 47 89 8D 50 3C 2B 98 7E 10 77 6D
 DC 44 3A 49 6F 62 C4 C5 90 9E 34 B2 C3 FD F7 55
 5D EA 43 A8 A5 48 23 0F C7 9C C7 D0 B2 80 03 35
 A4 0B BA D1 F5 35 22 C1 20 EC 44 87 E0 D6 23 D5
 A1 46 44 27 A0 0D 15 0D FD 95 36 23 FA 98 8B 43
 63 59 84 74 58 DC C7 27 FA B4 51 16 C9 5C 16 FA
 BE AA F7 5E 9E E0 F6 96 F4 7E 5A F2 6A DA 5E 36
 C7 B8 EB 65 93 9C 48 F4 64 95 F9 F6 9C DF 49 BA
 6F 2A 0D B4 6A CD 03 56 48 D5 26 0F D6 C9 F5 17
 8C 9C 04 93 04 02 BE 22 FC 86 34 D0 08 09 B2 61
 C2 52 F2 5C 72 F0 7A 27 0E A9 58 58 67 1A 6A 53
 A1 B2 79 E8 53 BC F5 39 29 FB 66 E2 5E E5 35 DA
 7F CA DB 69 51 0F 6D 80 BE EC 18 D6 B9 D4 31 F9
 AA D2 96 66 31 F9 6D E3 80 CA AD CB 88 E6 84 B6
 54 79 50 A4 4E 50 C0 F6 DD F4 34 A1 BE A6 97 66
 88 26 DF 57 A7 65 72 2E 80 39 15 54 17 D3 5B 6A
 D7 16 6C F1 91 A2 34 6D 1E FE 77 9F 1B 08 CF A3
 64 4A 22 77 25 8A 7B DE 93 05 C0 98 9F 82 D5 5D
 1C B5 7E F9 12 90 40 EC F9 1A BC 42 D6 CD B9 75
 E2 2D 21 76 17 CE D0 72 AC A3 01 ED D3 F5 B1 B8
 DC B7 80 07 AF B2 9D 37 35 54 FF 10 21 BA 72 AB
 E7 31 27 A3 3F 4B D1 02 91 41 68 5B A7 DA 27 FD
 3F 48 CA 6B 2F 2F 6E 85 41 0B 94 68 24 96 A2 A9
 64 B1 79 1E 0D B3 ED 44 A7 C4 43 4A AE 2B 88 27
 8A 0F FA 38 32 B9 F4 12 6E 4C 47 86 BD 83 98 CA
 D5 98 39 2E DA F5 99 6C 34 8D CF 73 9B 93 36 50
 D4 D2 00 C9 30 1B 78 DB D5 E1 1E 41 38 E6 7C 7C
 7C C0 FF 9B 61 76 8E FC 9C 37 67 9C 75 66 86 F7
 0D B6 22 D0 38 0C BC AA 7C 13 02 93 22 C1 64 FE
 AC 72 D3 92 1F 96 4E 16 5A DC D8 55 18 F5 84 8E
 27 37 F2 61 25 82 0F 5A 71 87 A1 FD AA 1C 74 25
 CC 70 8E 26 D3 BF EA B7 0E C4 8D B6 0F 2F C6 94
 51 F6 C7 7B B5 94 11 94 57 81 EC 6D 43 48 A1 E6
 AC 92 2E 3D 37 A7 8D BB 92 FF 4F 70 1C 9B C9 30
 18 25 5C 45 5F 72 E5 EA A9 BC 94 AB B9 D3 15 E2
 96 19 3A B7 CC C8 7F 61 DD B9 BF 97 37 B7 61 8E
 75 E9 14 60 92 9B F7 FE 50 E4 DD 2A 6C CB 93 9E
 1E BE F8 D5 A6 5B CF E4 E3 48 78 EC 0B 22 D4 CD
 DA 6D CA F1 14 B8 7E DB A2 34 B0 40 CE 4C B1 3F
 D7 5F D6 5A 21 29 94 0A 61 D9 6F 89 D6 D6 C2 C4
 21 45 0D FB DA 00 5B 07 3C F4 49 2C 5B 0C 7B 93
 14 43 D6 A2 9B 8C 47 80 83 3C 5F A1 88 BC 25 A0
 54 8B 5D F1 A5 7F AC 17 0B C1 97 CC A1 88 D0 90
 7A 40 3F 92 28 8D BE 8F D0 3C 9F 96 AC 17 92 B4
 3A C1 62 70 BD 43 D0 85 92 0B 4F 39 A0 DD 9D B4
 B6 69 DB 18 E9 11 CF 2B BC C5 59 A9 EC 35 73 54
 8A FE 39 6C 24 5E 40 36 84 E4 6F 34 58 93 9D BD
 77 37 5D A0 8E 3E B8 24 E6 81 A3 BB 5C F8 51 FB
 44 58 88 28 01 42 F1 2A 7D FF A3 29 63 31 41 5D
 E3 B0 D3 91 95 C5 F4 C5 B8 C2 59 9B 7C 73 57 00
 AE 40 6B C6 F0 EB 51 C0 F4 A2 65 10 8C 72 66 D8
 8A B8 D5 F5 F5 D3 5F 6D 9C 9A 08 81 93 39 16 EE
 15 30 8E 24 A0 16 B9 E4 A1 1F 2B 7F 3F 5E 47 2B
 87 9A 7B F1 40 11 15 D7 B0 D1 F5 2E 20 41 C4 FC
 83 2D C4 76 D4 CD 2F BB E0 BE 88 4F 5B DA 78 F2
 79 CF 2F 62 5D EE 9B F3 D4 AE FA 4B F9 F2 6F AE
 7B CF E6 90 92 DA AE 18 68 61 5F F3 02 E5 E7 64
 D8 86 C4 D5 0F 15 0E 55 62 92 65 CA 62 28 55 9B
 6C D2 FD 48 5E C6 14 49 19 B9 A2 97 F9 3A 76 69
 FD 72 36 32 D1 31 94 19 48 5A 4A E1 F7 5D 28 AD
 1E BE 0B 0D 6C A3 94 EB E3 61 81 68 07 38 FA B7
 63 50 5B AC 73 15 C8 6A 5D 67 51 44 61 63 EC E7
 E3 C5 14 71 35 A8 E4 CB F8 85 55 2B C7 C1 22 0E
 DA B9 71 8A 6E 13 2C 30 96 EE F7 7C E0 1F FF 69
 CC 39 59 68 96 53 F1 C1 9E 4C 4F 45 DA A8 E8 77
 22 34 8E 6E E7 0F BA B5 A4 CD 49 B0 C2 39 50 ED
 6C 7B FF 9D 8A 20 CF 4C 70 3E 72 97 00 9D 22 54
 99 2C E8 11 B5 B9 04 A9 36 D9 33 EE 46 E7 D4 69
 26 0D 58 6C 07 00 A9 56 06 C6 76 17 3D 49 7A 52
 A5 83 34 24 03 07 EE 72 1A C8 2B A2 F9 AD AD 3B
 D1 93 7D 74 B8 6B 0E 4E CA 93 E3 BB AC C2 E2 E3
 C6 08 C5 2E 2F 15 67 70 D6 DC 16 56 B7 5B A4 52
 7F A2 D5 AB 6C C4 65 D5 65 59 C1 E8 9D CC 4D 49
 82 36 41 D5 8F E3 7F C4 FD 9C 01 33 1A 88 35 1A
 D6 AE 74 79 10 52 4B 69 AD 31 49 C4 BB 93 AE A7
 C1 D9 DB 33 FF 48 DD DC DB C9 DE 55 34 8A 58 59
 81 34 F5 71 49 39 81 0E 55 99 C5 83 BE 07 61 B0
 61 13 CB 61 05 11 3E 9A 6A AD 8F 7D 74 F0 1D 9A
 1C 05 C1 91 67 61 6E 8E CA 0B 2E 55 F5 AB F9 BA
 C0 C9 20 CF 57 94 B7 C2 81 B3 2A AE 35 03 E2 B9
 EB 70 8F 87 66 4A FA 71 35 98 83 37 0B 26 44 6C
 8C 64 19 54 E6 E2 EB 8B 36 C2 B5 37 E9 12 05 1C
 93 39 D3 2C 67 72 F9 98 E8 7A D8 C0 50 BB 27 B3
 54 02 74 D6 C9 58 C4 C8 11 E2 F1 73 21 48 60 74
 35 C7 79 F5 EC 78 B8 B3 32 83 C4 CC BC 88 30 CB
 F3 B7 75 F0 DD A8 5D 89 21 49 29 30 27 A9 7C F3
 54 70 97 0A 9F 5C 33 8B EE 4D 55 FD 1E 45 04 1A
 FB 5C 6A 72 5D 2A 7A 8E A5 D5 2B 99 80 96 AD C3
 4A DF 20 D1 7A 4D E0 A9 1C BE 7F E2 34 E3 58 0B
 4B F5 CC 12 BE 28 C8 5C 0B 0D FA 9C D5 0D 26 07
 DF 22 71 97 36 88 1A 4F DB 26 E8 22 F5 41 77 41
 2C 13 0F 1B 56 ED 66 D6 7E BC 07 AB 08 F1 35 84
 09 E2 1A F7 36 B6 A8 F0 3A 34 40 0E 52 8C 04 73
 A4 FA ED 57 CA 89 52 4F 6E 8B 4A CD 12 1A 8C 2F
 F1 00 30 26 87 FC 83 0C 25 54 FE FB 24 7C 30 F1
 0D A7 F8 72 DF 9A 27 48 39 23 B0 9E EF 58 96 67
 BE 53 AC 3D CC 45 9C 6A 67 DE E9 2A 1E AC D6 B0
 AD 2B 4B 50 9B AF 31 AD 16 FE E0 DD A6 E3 C4 48
 B7 C8 41 1E 79 3C 70 E2 52 05 34 FF 68 D9 97 2E
 7A 7B 87 A6 9E AA 24 1B F3 C6 13 71 5D A5 13 7A
 79 5C 2D 60 79 83 79 D6 12 B6 48 19 90 77 3A 1F
 79 6B 3F 5D D2 D4 0B C2 91 90 EC 80 08 14 64 B5
 99 2B D0 5C 8E 98 DF 25 03 AC 9D DB 7C 4C 77 26
 C1 53 FD 1E A5 CE 5C 45 7E 68 30 14 4D 02 99 09
 0E B1 5B 60 27 B7 A0 BC 4B 1B 0A 26 45 66 52 31
 E7 D1 6C D8 3F E5 BC CB 66 74 E7 11 44 4B F0 5A
 0C 05 60 95 F3 9A E0 D3 FB 2F 85 10 EA D2 7C B9
 DF CA 2F 6A 1C 72 AC 46
* End 2301400561 1138604384