* LTspice Encrypted File
* 
* This encrypted file has been supplied by a 3rd
* party vendor that does not wish to publicize
* the technology used to implement this library.
* 
* Permission is granted to use this file for
* simulations but not to reverse engineer its
* contents.
* 
* Begin:
 D5 35 57 86 82 12 7A 1E FE 02 B8 B7 0E 0C B2 F7
 7C C5 5E 3E 95 03 76 45 0E 0B B3 C5 78 29 71 20
 54 0E 7F 2C 5E B4 6F FB F0 22 B7 B6 15 DE E0 B1
 20 CB 19 1C E2 95 77 50 B2 63 2F BE 02 38 4A 4F
 D3 9D 28 77 7C 9C 71 6A 75 10 D3 30 CA D3 C8 63
 45 9F 12 DA 2A 3A 5A 1A 60 0A D5 19 35 D9 F7 06
 7A E0 79 8E 21 21 8F 24 F4 2F 05 7C FD 8E B2 71
 B5 30 D3 A7 20 F2 28 0E C7 F4 AD 23 A1 2B 30 53
 02 25 5F 32 F5 3F C3 FC D5 2B 9A 0F 43 ED 83 47
 67 A7 0A 69 5B E4 EE 0C D4 35 E1 48 16 41 D8 20
 86 60 40 6E 07 7B C0 09 69 0D 4C C6 88 96 62 92
 F6 0E 13 8A F2 BB 85 30 AB 54 8C 61 FC 77 65 1A
 1F D0 1A 01 59 6B B4 CC 06 58 5C A6 62 AF 7A D1
 68 94 77 67 C4 17 F0 52 09 02 C0 D1 3D 1A BE 92
 17 D1 F2 4D 8F 3E 9D DE 03 30 97 9C 40 98 1C D1
 9C 58 6B 8D AD 6A DB 2A A3 1F E5 BB 79 BA D9 99
 38 D8 C6 83 44 0C A7 35 87 16 8A 2A 89 D9 39 EE
 EE 9B A2 4F 99 1D 2D E7 1C B8 4E 69 54 E1 8A 03
 77 B4 02 D4 C0 80 87 1E 33 6C 96 25 E7 78 68 FD
 7F 61 BC 5B 80 CB 40 69 29 D7 70 7D CC 1B 1D E5
 96 1B 0B 10 5A F6 7D F5 20 D9 6B 2D 2F A7 4D 23
 4C A5 48 28 CB 02 11 C7 84 67 68 A0 25 4F BF 9B
 70 BC D8 C1 20 57 36 1B 49 01 C5 0C 79 65 F4 03
 FB EC DC 12 C5 C5 7D 49 56 62 6E 4F 4F 4B C3 49
 25 A5 6B 8A D9 A8 19 B1 5C 08 1E 65 A5 EE 72 A0
 82 91 CC 1F 7E 46 45 8F A6 B4 E4 4F 7C 6F E7 6D
 62 AC 48 DF A5 37 FA 04 D6 7D 13 2F F9 ED B2 88
 2B 91 67 9C BD B6 06 7D 3C AB A2 9A D3 B6 BF 38
 75 AB 5E B8 F0 4A 53 10 FC EA EE CF BE 46 F1 E8
 DB 14 E6 6B 94 1B 85 37 66 09 26 32 99 54 64 B1
 73 39 F8 36 E7 5D 6F 4B 4C 5B E1 0A F2 C0 57 BB
 B0 00 58 66 3C B6 51 2C D5 1B 68 2F 65 A3 D4 B0
 FB F0 1B B2 8D 10 77 B4 95 F9 DF 38 BE 49 6E 9C
 4A EF C4 6D 01 7F D1 99 D5 B2 EC 9E 29 C0 34 40
 69 C3 80 92 38 38 08 80 6F 6E 38 56 21 46 1E 32
 D5 15 12 D9 CD 30 E6 1A FF 10 F8 3E 62 D9 5F D6
 41 2C 3D EC 74 50 32 EF 73 63 12 1A 12 AB F0 AC
 C8 3D 87 AB B7 17 6C 89 77 36 ED AE 01 AB 76 51
 80 60 EF BF D2 8C 20 77 DD EF DF 05 86 B6 58 7D
 B8 0D EC C0 F2 D3 5B D6 D2 45 9A E6 7C 61 CE 7F
 FF 15 89 54 0E 05 9A CF C2 D1 3E D7 64 A0 20 CF
 1C DD E6 12 FE CF E6 C8 BD DE 91 74 46 11 E0 EF
 15 1C 44 61 12 D7 75 E4 80 EA 0A 6A 28 AF 05 82
 54 93 30 60 C5 04 9A E5 83 E7 64 79 86 BE 61 0A
 93 19 DA 01 8B 9E CB 16 58 56 54 1D 8B 02 AE CC
 CD 2A 09 23 ED E2 4A 64 67 9A 76 5C 35 D7 09 D6
 21 BA D2 CB 13 D9 88 30 DE 94 6B EC AC EB 31 9F
 C4 FA B6 1D 6B AD D3 89 CF E1 0A 9E 88 E1 C4 E6
 10 4E DE E7 62 4C E5 0D 41 69 7B 92 8E 98 45 67
 F4 6F 65 49 9D 13 91 8B A6 14 A3 06 63 E2 90 57
 1C 3B 09 DC 81 E1 61 9A 60 B4 47 97 81 26 F2 85
 55 F8 3D 74 4B 85 FD B3 DB DE CB 29 64 B4 05 D1
 BF 1D 40 5B B8 0B 9E FD D9 0D F2 5C 0F 8D B9 0A
 84 BD A4 6E 87 72 35 24 B1 A9 9F AE A2 0F 24 7A
 D3 0B 48 55 0A 86 54 DB 8C 75 7D 42 6C CD 18 D6
 52 E9 4D A3 72 52 19 D5 E9 48 98 68 FE 4B C7 69
 EF 27 BC EF DB 77 47 F0 9D 13 DA D1 64 25 15 6C
 6B 21 B3 8B F9 6C F9 F1 88 6E D5 57 C0 F8 6E AA
 C3 AC D5 13 5F 4D E7 21 72 4D 30 0D C4 C3 5A 05
 E0 88 B5 8A 2A F0 E8 29 EF AA 25 E5 18 EA FD 61
 32 91 66 7F 27 BD 32 3A 70 9C 03 5C D8 AB 7B E6
 EE 02 6D 9C 6B 6C 3B 38 72 AE 84 B8 BC AD B8 B1
 84 92 A0 35 40 72 29 01 D0 C6 8D D2 1B 20 3C 63
 9B 51 64 45 D5 52 FE 2B 9A EA F0 91 FA 31 BF FD
 A5 93 AD D9 22 3D E1 C2 48 C2 D5 CB ED 83 CB E8
 6D 24 F8 9C 2E A6 FC E5 F8 2D 16 03 57 81 30 08
 38 11 B9 82 92 42 5C F9 67 52 75 9F EA 49 95 5A
 0E 50 5D BC 32 D0 34 6E 01 46 69 1D 00 4B 64 88
 AC 14 BD C8 3B DD 50 70 2A F8 10 40 82 29 A6 24
 A1 7C F3 D7 25 E4 5F 4D B8 3F 9E 92 F7 1B C7 F0
 A9 B5 3D 7E 59 FD 5C 7B DA 09 1A ED A7 89 9E 31
 22 3B 88 87 71 10 A2 31 C9 7D 49 33 7C AB 60 7B
 4C 18 98 A6 29 81 61 A9 27 78 FC 03 EE 3B 2C AA
 2A D9 90 19 C9 1F 59 F4 85 D1 56 52 F5 57 3F 4B
 1B A8 66 60 54 E4 5E 9B 68 DE EC AB D6 BD 8D DF
 05 ED 55 55 D6 53 73 53 91 CB EC 89 8D C5 F8 8B
 7B 2C 46 7A 2A 24 23 11 99 8C AC 75 AD 8E 59 E0
 92 F9 75 F9 0B E0 EF 46 A9 68 0A AB BB 60 A4 6D
 CA 53 CC 00 B5 E7 EC BC 9A 5B 97 07 A2 BA AA 3E
 33 3A 68 F1 51 8B 28 2C 16 62 88 75 2B 57 3E 3E
 74 94 54 F7 4C 6B 32 B0 5F 30 BA D5 A8 C0 EB 2F
 A4 12 5F 53 03 7B FA 16 24 7E 6E 9C BB 48 6E 5E
 06 A5 00 4F AA 96 16 75 C6 FD CB F1 D9 FB 6C 9F
 48 2B EC 1C 60 FA 36 76 23 43 B4 AE 59 44 44 78
 4C 1A AF 0D 7C 30 4D 3D 4F 01 8F 13 34 6B 1F 19
 8B E7 72 14 15 8C CE 7B E4 DB 3C 77 3D B0 2E C0
 A1 F6 8C F9 98 ED 6F 76 29 68 98 1E 22 BB 87 36
 13 E9 CB 52 90 D1 58 9E A4 19 DD F9 9A 3C 11 E4
 6B 20 19 74 79 0D 8D 69 B7 3E 80 98 60 B9 4A 5C
 75 07 0D D7 85 7D 83 8A 47 89 7F 1C FD 18 79 72
 33 17 37 53 4D A0 2C 45 43 34 1D 48 66 16 49 E6
 AA BB EB 0A 38 8D BB FA EA DD 2E 54 D2 CD 7F 9D
 69 EB F8 3E 3F B7 0A 7B 53 BA 78 F6 33 53 4A 9B
 DD 0F DE 09 E8 37 5A 86 48 32 CC 7C 64 6F 70 69
 B5 D4 8B 8C EF DF 40 A3 60 D0 B3 5B 16 24 78 F2
 19 DA DF DF 22 58 DE E3 51 49 D9 13 CE 06 6D 3B
 1D 13 F6 67 0C 54 82 A1 2E FE 55 B3 00 C4 C4 AB
 C8 CB DE 22 24 13 B0 E1 E4 CF A5 3A 67 B5 62 70
 92 CF 06 07 82 27 98 44 A8 C2 9C 0D 28 51 AD 50
 15 B6 44 D7 13 B0 2B D0 5C D3 C3 DA F3 13 0B A3
* End 2617046371 1563123148