* LTspice Encrypted File
* 
* This encrypted file has been supplied by a 3rd
* party vendor that does not wish to publicize
* the technology used to implement this library.
* 
* Permission is granted to use this file for
* simulations but not to reverse engineer its
* contents.
* 
* Begin:
 12 4A 23 3D 58 60 CF EB 21 FE A9 17 90 5B 7D 5B
 08 B4 57 F5 51 79 63 FF 7F 5C D7 8F 74 D1 75 7B
 0A 44 54 E9 81 35 47 B8 FB 07 43 55 EC 78 E0 98
 A0 D9 9A 8E C3 3A 53 A9 28 68 4E 3E 40 A3 30 48
 93 24 2B 40 0A C4 4E 17 8A B8 35 EB F9 AB 2C B9
 44 EC 1D C9 75 5F 52 2B C7 4B DC C8 55 09 29 58
 01 91 08 68 C1 CF F3 DE CB 82 1B 45 EB 57 8A FD
 CB 9F 54 94 0D 76 9D 3C 93 B8 79 2C B8 28 98 22
 75 A3 FA D6 71 F5 E0 4D 41 1C 84 F1 94 4C AE 25
 C1 C1 A4 63 96 06 52 B3 26 FC D9 2B B4 B8 54 4F
 07 20 41 6B 71 55 E1 79 96 45 CB 7B 26 6E 3B 8F
 D6 3D 6F F9 B5 78 6E 29 EB 68 34 C1 D0 C1 A3 C9
 C7 02 A7 9C 16 6A CF 82 E0 4D 8D AF 51 3F 7B B1
 4F 7B 54 BF FD BD C6 04 B8 EC 0F 82 C6 45 B1 6F
 71 89 D4 16 62 29 57 C3 D2 41 E5 29 2B FF 3F CF
 8E AA 1B 7D 1D 51 9F B5 32 AC 8B 02 EC 4D 5B F0
 B1 4E 9E A5 B2 E8 6B AC 59 F4 3B CA 47 47 04 CA
 1B 48 BD 55 11 46 3C A9 EC A8 C4 72 55 22 DA C6
 2A B2 96 7F 26 43 48 34 2B 00 B6 08 79 09 F7 91
 52 55 D0 48 11 72 B9 6B 90 4A 09 96 BC EE A9 C3
 A5 D3 4C D8 F3 84 84 BF 29 6A DA E0 88 2B 32 4E
 A1 46 E1 DF 07 61 E6 FE 71 DD A1 D5 51 19 DE AF
 AD 09 20 EB C3 06 8F 9E F1 DF 56 73 AD 82 37 5E
 45 57 D7 64 AF E3 59 E4 E2 2B 76 69 13 5D 00 D7
 FF C5 AA BA 8B 8F 67 8F 04 CA 29 FD C3 81 DC AD
 D9 4E 65 A6 26 0F F7 14 20 2A 1D B4 E9 9C DA 59
 11 AB 40 88 54 7B 5C 0B 48 76 DA AF A7 20 18 53
 8C 4A 00 EC DE 6F 71 FB 24 34 4F 99 EC A2 A0 5C
 BC C9 78 85 5D 24 81 03 49 B0 11 D1 9E D1 20 02
 1B A3 C3 C1 F8 D7 57 39 20 DC 17 CE 7F 69 38 E6
 BE 12 8F D1 1C 47 65 89 BB 20 D3 57 31 95 C9 A5
 1C 64 83 51 C1 B0 F6 41 C5 62 80 E8 4A 18 A5 21
 AB 78 B2 4D 1B 8D A0 73 A6 7B 0A 45 29 D4 38 F2
 24 D5 77 71 42 51 CF F0 DA D1 49 7F 34 E3 D4 71
 59 3A 99 1E 4A E6 52 E1 F8 37 83 A1 BE 7B D6 74
 6E 00 50 70 6D D7 C5 90 D5 03 4F 0D 9E 3D D7 50
 9E A9 A4 6B 9F 04 8E 17 80 E8 8E FF 1F 7A 29 60
 65 DD 57 CE 53 21 FA F0 33 F0 50 2A EA 50 C9 23
 C8 87 EC AF FC 30 55 0E 2B B7 C2 26 9C 81 0C 7C
 B6 4B DF A3 28 8E 2A C3 20 93 E4 38 EC CF 21 94
 13 AE 3D AC 9C 19 4F DA 45 C5 D3 3E 06 F4 5B BE
 82 12 09 DF 7B 67 95 17 2F 41 37 1D 81 85 9E 0A
 CF F3 C7 1D 0C A1 88 8F F5 D7 0D A3 C3 26 E5 99
 1D 16 01 A2 62 88 4E EF C2 B4 37 FD EF E6 04 B4
 78 01 A6 C5 78 5E B5 86 B1 0C 96 A6 36 38 28 6F
 95 EB 72 4C 02 D2 5E 89 A4 0E 0E CE 69 71 9E 38
 2A ED EF 8B FF A5 9C 43 64 3D 84 7B 7D E7 80 2B
 8A 6E 36 AB 5B 7C FA B6 6E E4 1F 2A 89 33 5D D7
 F2 F1 5F 27 0B F7 4C 1D 80 36 1C 63 6A 65 00 3A
 6F 3F 2F B9 AE 99 D7 1C EA F6 78 AC 84 D7 55 BD
 6B 4E 50 E7 F1 3C 97 AE 72 99 17 B8 BF 05 17 88
 6B F8 19 67 DB 65 EE 23 CC E6 A6 A9 99 5B AC 82
 7D 1F 66 67 31 4A C4 FB 09 E2 F5 B1 D9 73 15 CC
 B7 1E C5 1F CC 84 5F 83 93 2E 00 E7 EA 15 95 6F
 49 B3 73 82 3E 67 80 D3 3D C3 AD 6C 1E 63 CB 90
 8C 4F 04 2C A3 5A EB FA 18 74 BB F2 53 37 DD 3E
 1E 7A 43 1E 54 84 F3 72 9C 3D 75 48 F1 1F 15 FA
 07 6A 72 EE 76 03 3A D0 CA 89 D7 C4 F8 F6 04 95
 33 B0 1C 56 D0 AD ED A2 75 94 FF 7F E7 CD 74 61
 F6 52 1F 97 43 1B 99 0A BB 31 18 9F 72 6B 67 D5
 F3 33 40 4A 3D 4A 09 BB E4 90 CC 5A B4 CD 97 CA
 37 C9 B7 1C 67 14 3D E8 B3 05 74 9F 2E 2B 4C 7C
 FD 1D 09 64 01 FF 9D 61 93 09 27 71 FA 59 00 ED
 30 82 AC 19 03 C2 B5 A4 52 F9 0B 12 B0 C6 48 17
 71 A3 D3 A6 62 DC D0 41 62 35 5B 1A 1E 00 80 D2
 E7 63 9E 54 EA 2A D6 9F BD 5F 8D 4C 9F 5F 6B 28
 91 20 98 EA 90 16 D2 B3 FE C8 3F C2 54 02 7F 52
 B1 61 42 99 0E F8 A2 C5 23 CA D9 5D 61 A7 94 49
 D9 86 45 06 BB 99 07 AB 71 FB 50 54 C3 07 B3 64
 1C 92 3A A7 39 95 E5 47 5E A8 C0 B2 D5 E7 31 97
 A0 B9 38 C2 F6 DD 8C 16 D2 74 CF 97 D9 1C A1 DB
 AB 79 07 C9 EE 5F 1B 5E 6B CE 65 83 87 FB 73 D7
 8F 3E 9F F6 08 37 74 A8 AD 92 AB 3C A1 DD D6 3D
 C9 27 14 78 FD 6A 95 25 2D C0 77 7A CD 19 6D 03
 BC C3 C2 3D 8F A0 D7 20 0F 68 16 37 F5 82 AA C2
 69 7D 59 88 03 6F 07 87 00 0F 54 D4 10 25 97 8C
 B4 15 16 C4 A8 7D DD 2F B4 3E DB A0 19 D4 77 A7
 66 AC 16 07 57 13 25 B2 52 98 7C 01 9D D3 9E 5A
 93 AB 68 2C FB B1 A2 FD B5 9E 22 D0 43 1F 6B BB
 1A C8 8A 0E 9A FE D7 88 38 2F 0A 6A FB 40 13 DC
 70 4F 2E DC E5 24 83 C1 32 52 55 0C 09 A9 D2 C4
 EA E9 2C FB F5 97 12 64 39 D6 E9 D5 3A C6 AA 2B
 57 86 D6 BF 50 5D ED 80 A0 43 A0 0D EA D1 11 ED
 9B BC 39 0C F8 4C 34 D1 83 15 8F 2F 9C 0F C6 06
 FA DC 63 84 B1 E3 C1 42 93 96 F4 AF 5A 79 0F 96
 D0 68 54 47 66 D4 A6 B8 32 30 3F AA 75 F1 B4 53
 9F 89 32 1B F8 06 B4 AE 82 ED D1 A4 C5 BF 03 3E
 EE 1E FB 49 5C D1 FE 87 5A E0 74 07 02 45 5A FF
 4F F8 BD 49 4D 21 CD 6A 31 33 8D 2B 10 29 37 CA
 D2 A8 06 01 9F 90 B5 7B A2 60 02 B3 B9 4D E7 BF
 4B 93 F4 22 47 17 A4 BB CF F8 41 12 B5 F6 C8 0B
 E6 E5 3D 08 71 21 61 E1 6D 4E EC ED 5F D6 9F 67
 B0 99 C7 BF 16 42 95 B7 AA 64 5A 58 2E 04 D3 95
 B8 FA A6 81 56 10 FF 97 93 F7 EC 4F 76 A6 C0 96
 28 6B D2 B1 74 38 B7 AF 52 61 A8 6F 5C C6 18 BC
 1B C4 FB FE D5 56 0B 6A 73 10 C8 BA 94 47 C0 26
 4E D1 CB 9B 0D 9A 0B 39 6A 4A 0E 6A B8 C8 EA 4C
 03 06 94 C2 63 D5 1A 39 BD 6A F2 86 4C AA 0D 73
 7C EA A8 F4 48 FF EF EE 61 08 E5 14 09 29 CE 04
 AB B3 0E A0 F9 4F 9F D5
* End 310598064 834833828